
     RDKit          3D

126128  0  0  0  0  0  0  0  0999 V2000
   -8.5346    3.6609   -6.1282 C   0  0  0  0  0  0  0  0  0  0  0  0
   -7.3614    3.9246   -5.1900 C   0  0  0  0  0  0  0  0  0  0  0  0
   -7.7051    4.8959   -4.0334 C   0  0  2  0  0  0  0  0  0  0  0  0
   -8.0003    6.3097   -4.5674 C   0  0  0  0  0  0  0  0  0  0  0  0
   -6.6289    4.9463   -2.9024 C   0  0  1  0  0  0  0  0  0  0  0  0
   -7.0656    4.0810   -1.7061 C   0  0  0  0  0  0  0  0  0  0  0  0
   -7.2800    4.5447   -0.5876 O   0  0  0  0  0  0  0  0  0  0  0  0
   -7.1324    2.7269   -1.9901 N   0  0  0  0  0  0  0  0  0  0  0  0
   -7.2003    1.7747   -0.8881 C   0  0  1  0  0  0  0  0  0  0  0  0
   -7.6560    0.3876   -1.3809 C   0  0  0  0  0  0  0  0  0  0  0  0
   -7.8069   -0.6079   -0.2259 C   0  0  0  0  0  0  0  0  0  0  0  0
   -8.9831    0.4786   -2.1489 C   0  0  0  0  0  0  0  0  0  0  0  0
   -5.7580    1.7698   -0.3067 C   0  0  0  0  0  0  0  0  0  0  0  0
   -4.7756    2.0901   -0.9844 O   0  0  0  0  0  0  0  0  0  0  0  0
   -5.6859    1.4392    1.0284 N   0  0  0  0  0  0  0  0  0  0  0  0
   -4.4333    1.3712    1.7700 C   0  0  1  0  0  0  0  0  0  0  0  0
   -4.4325    2.3693    2.9318 C   0  0  0  0  0  0  0  0  0  0  0  0
   -4.7150    3.8124    2.5035 C   0  0  0  0  0  0  0  0  0  0  0  0
   -6.0525    4.2722    3.0308 C   0  0  0  0  0  0  0  0  0  0  0  0
   -6.2121    4.6522    4.1879 O   0  0  0  0  0  0  0  0  0  0  0  0
   -7.1000    4.1760    2.1695 N   0  0  0  0  0  0  0  0  0  0  0  0
   -4.2661   -0.0747    2.2997 C   0  0  0  0  0  0  0  0  0  0  0  0
   -5.1976   -0.8716    2.3486 O   0  0  0  0  0  0  0  0  0  0  0  0
   -2.9951   -0.3694    2.7499 N   0  0  0  0  0  0  0  0  0  0  0  0
   -2.5289   -1.7511    2.9191 C   0  0  1  0  0  0  0  0  0  0  0  0
   -3.2753   -2.6426    3.9186 C   0  0  0  0  0  0  0  0  0  0  0  0
   -2.5998   -2.4660    5.6355 S   0  0  0  0  0  0  0  0  0  0  0  0
   -0.6121   -2.9744    5.4170 S   0  0  0  0  0  0  0  0  0  0  0  0
   -0.5498   -4.7578    5.8438 C   0  0  0  0  0  0  0  0  0  0  0  0
    0.5117   -5.5383    5.0449 C   0  0  2  0  0  0  0  0  0  0  0  0
    1.7939   -4.8420    4.9126 N   0  0  0  0  0  0  0  0  0  0  0  0
    2.9410   -5.2283    5.5691 C   0  0  0  0  0  0  0  0  0  0  0  0
    3.0446   -6.3525    6.0558 O   0  0  0  0  0  0  0  0  0  0  0  0
    4.1226   -4.2303    5.5219 C   0  0  1  0  0  0  0  0  0  0  0  0
    5.0044   -4.5353    4.3979 N   0  0  0  0  0  0  0  0  0  0  0  0
    6.2733   -3.9942    4.3717 C   0  0  0  0  0  0  0  0  0  0  0  0
    6.7777   -3.4541    5.3557 O   0  0  0  0  0  0  0  0  0  0  0  0
    6.9473   -4.0133    2.9988 C   0  0  0  0  0  0  0  0  0  0  0  0
    7.3057   -2.6604    2.6073 N   0  0  0  0  0  0  0  0  0  0  0  0
    6.3109   -1.7442    2.3345 C   0  0  0  0  0  0  0  0  0  0  0  0
    5.1258   -1.9666    2.5870 O   0  0  0  0  0  0  0  0  0  0  0  0
    6.8061   -0.3905    1.7921 C   0  0  1  0  0  0  0  0  0  0  0  0
    5.7637    0.1552    0.9317 N   0  0  0  0  0  0  0  0  0  0  0  0
    5.8041   -0.0767   -0.4334 C   0  0  0  0  0  0  0  0  0  0  0  0
    6.8359   -0.4273   -1.0039 O   0  0  0  0  0  0  0  0  0  0  0  0
    4.5184    0.3081   -1.2101 C   0  0  1  0  0  0  0  0  0  0  0  0
    3.3110    0.2966   -0.3734 N   0  0  0  0  0  0  0  0  0  0  0  0
    2.7859   -0.9236    0.0433 C   0  0  0  0  0  0  0  0  0  0  0  0
    3.4487   -1.9574    0.0219 O   0  0  0  0  0  0  0  0  0  0  0  0
    1.3615   -0.8290    0.6211 C   0  0  1  0  0  0  0  0  0  0  0  0
    0.7508   -2.1338    0.8654 N   0  0  0  0  0  0  0  0  0  0  0  0
    0.1776   -2.8747   -0.1607 C   0  0  0  0  0  0  0  0  0  0  0  0
    0.4589   -2.7134   -1.3433 O   0  0  0  0  0  0  0  0  0  0  0  0
   -0.7478   -4.0061    0.3786 C   0  0  1  0  0  0  0  0  0  0  0  0
   -1.5063   -3.5330    1.5467 N   0  0  0  0  0  0  0  0  0  0  0  0
   -2.2627   -2.3750    1.5302 C   0  0  0  0  0  0  0  0  0  0  0  0
   -2.5226   -1.7868    0.4817 O   0  0  0  0  0  0  0  0  0  0  0  0
   -1.5042   -4.8448   -0.6559 C   0  0  0  0  0  0  0  0  0  0  0  0
   -2.5661   -4.1396   -1.4967 C   0  0  0  0  0  0  0  0  0  0  0  0
   -3.9771   -4.2569   -0.9218 C   0  0  0  0  0  0  0  0  0  0  0  0
   -4.9103   -3.5948   -1.8223 N   0  0  0  0  0  0  0  0  0  0  0  0
   -6.2448   -3.7633   -1.6958 C   0  0  0  0  0  0  0  0  0  0  0  0
   -6.8266   -4.5373   -0.8595 N   0  0  0  0  0  0  0  0  0  0  0  0
   -6.9066   -3.0357   -2.6206 N   0  0  0  0  0  0  0  0  0  0  0  0
    1.4068   -0.0461    1.9376 C   0  0  0  0  0  0  0  0  0  0  0  0
    0.0820    0.1524    2.4423 O   0  0  0  0  0  0  0  0  0  0  0  0
    4.7536    1.6698   -1.9134 C   0  0  0  0  0  0  0  0  0  0  0  0
    3.6545    1.9621   -2.9394 C   0  0  0  0  0  0  0  0  0  0  0  0
    4.9022    2.8473   -0.9427 C   0  0  0  0  0  0  0  0  0  0  0  0
    7.1673    0.5593    2.9342 C   0  0  0  0  0  0  0  0  0  0  0  0
    5.9976    0.9279    3.8533 C   0  0  0  0  0  0  0  0  0  0  0  0
    6.4464    1.8501    4.9495 C   0  0  0  0  0  0  0  0  0  0  0  0
    7.5672    2.2989    5.1215 O   0  0  0  0  0  0  0  0  0  0  0  0
    5.4428    2.1695    5.7856 O   0  0  0  0  0  0  0  0  0  0  0  0
    3.6596   -2.7601    5.4903 C   0  0  0  0  0  0  0  0  0  0  0  0
    3.0292   -2.4613    4.2311 O   0  0  0  0  0  0  0  0  0  0  0  0
    0.0008   -5.9951    3.6712 C   0  0  0  0  0  0  0  0  0  0  0  0
   -1.1843   -5.9567    3.3363 O   0  0  0  0  0  0  0  0  0  0  0  0
    0.9809   -6.6133    2.9091 N   0  0  0  0  0  0  0  0  0  0  0  0
    0.6706   -7.4160    1.7343 C   0  0  0  0  0  0  0  0  0  0  0  0
    1.5867   -7.1575    0.5369 C   0  0  0  0  0  0  0  0  0  0  0  0
    1.1925   -7.2919   -0.6205 O   0  0  0  0  0  0  0  0  0  0  0  0
    2.8982   -6.9040    0.8525 N   0  0  0  0  0  0  0  0  0  0  0  0
    3.9363   -6.7117   -0.1771 C   0  0  1  0  0  0  0  0  0  0  0  0
    3.8836   -5.2866   -0.7539 C   0  0  0  0  0  0  0  0  0  0  0  0
    4.9736   -4.9675   -1.7517 C   0  0  0  0  0  0  0  0  0  0  0  0
    5.8597   -3.9062   -1.5062 C   0  0  0  0  0  0  0  0  0  0  0  0
    6.8666   -3.5970   -2.4176 C   0  0  0  0  0  0  0  0  0  0  0  0
    7.0003   -4.3428   -3.5903 C   0  0  0  0  0  0  0  0  0  0  0  0
    6.1133   -5.3832   -3.8541 C   0  0  0  0  0  0  0  0  0  0  0  0
    5.1003   -5.6901   -2.9442 C   0  0  0  0  0  0  0  0  0  0  0  0
    5.2632   -6.9720    0.5241 C   0  0  0  0  0  0  0  0  0  0  0  0
    5.5001   -6.7176    1.6985 O   0  0  0  0  0  0  0  0  0  0  0  0
    6.1779   -7.5777   -0.2518 O   0  0  0  0  0  0  0  0  0  0  0  0
   -5.2833    4.4829   -3.2749 N   0  0  0  0  0  0  0  0  0  0  0  0
   -4.4475    5.2980   -4.0142 C   0  0  0  0  0  0  0  0  0  0  0  0
   -4.8267    6.3688   -4.4939 O   0  0  0  0  0  0  0  0  0  0  0  0
   -3.0751    4.7023   -4.3762 C   0  0  2  0  0  0  0  0  0  0  0  0
   -3.2104    3.7090   -5.5426 C   0  0  0  0  0  0  0  0  0  0  0  0
   -3.5318    4.3905   -6.8737 C   0  0  0  0  0  0  0  0  0  0  0  0
   -3.6186    3.3812   -8.0211 C   0  0  0  0  0  0  0  0  0  0  0  0
   -2.3047    2.8348   -8.2979 N   0  0  0  0  0  0  0  0  0  0  0  0
   -2.0680    1.5170   -8.4724 C   0  0  0  0  0  0  0  0  0  0  0  0
   -2.9057    0.5848   -8.1951 N   0  0  0  0  0  0  0  0  0  0  0  0
   -0.8324    1.2863   -8.9501 N   0  0  0  0  0  0  0  0  0  0  0  0
   -2.4364    4.0192   -3.2419 N   0  0  0  0  0  0  0  0  0  0  0  0
   -1.0576    4.0023   -3.1632 C   0  0  0  0  0  0  0  0  0  0  0  0
   -0.3543    4.7806   -3.8110 O   0  0  0  0  0  0  0  0  0  0  0  0
   -0.4160    3.0718   -2.1140 C   0  0  2  0  0  0  0  0  0  0  0  0
   -1.1742    1.7754   -1.7993 C   0  0  0  0  0  0  0  0  0  0  0  0
   -1.3852    0.8464   -3.0121 C   0  0  0  0  0  0  0  0  0  0  0  0
   -2.2585   -0.3414   -2.6026 C   0  0  0  0  0  0  0  0  0  0  0  0
   -0.0672    0.3374   -3.5972 C   0  0  0  0  0  0  0  0  0  0  0  0
   -0.1594    3.8804   -0.9213 N   0  0  0  0  0  0  0  0  0  0  0  0
    0.8979    3.5761   -0.0841 C   0  0  0  0  0  0  0  0  0  0  0  0
    1.4769    2.4924   -0.0765 O   0  0  0  0  0  0  0  0  0  0  0  0
    1.3105    4.7611    0.8220 C   0  0  2  0  0  0  0  0  0  0  0  0
    0.3680    4.9154    2.0275 C   0  0  0  0  0  0  0  0  0  0  0  0
    0.5053    3.9187    3.1568 C   0  0  0  0  0  0  0  0  0  0  0  0
    1.7363    3.3796    3.5630 C   0  0  0  0  0  0  0  0  0  0  0  0
    1.8109    2.5139    4.6612 C   0  0  0  0  0  0  0  0  0  0  0  0
    0.6610    2.2050    5.3788 C   0  0  0  0  0  0  0  0  0  0  0  0
   -0.5639    2.7410    5.0142 C   0  0  0  0  0  0  0  0  0  0  0  0
   -0.6334    3.6001    3.9137 C   0  0  0  0  0  0  0  0  0  0  0  0
    0.7758    1.3583    6.4383 O   0  0  0  0  0  0  0  0  0  0  0  0
    1.2626    6.0003   -0.0050 N   0  0  0  0  0  0  0  0  0  0  0  0
  1  2  1  0
  2  3  1  0
  3  4  1  6
  3  5  1  0
  5  6  1  0
  6  7  2  0
  6  8  1  0
  9  8  1  6
  9 10  1  0
 10 11  1  0
 10 12  1  0
  9 13  1  0
 13 14  2  0
 13 15  1  0
 15 16  1  0
 16 17  1  1
 17 18  1  0
 18 19  1  0
 19 20  2  0
 19 21  1  0
 16 22  1  0
 22 23  2  0
 22 24  1  0
 25 24  1  6
 25 26  1  0
 26 27  1  0
 27 28  1  0
 28 29  1  0
 29 30  1  0
 30 31  1  0
 31 32  1  0
 32 33  2  0
 32 34  1  0
 34 35  1  0
 35 36  1  0
 36 37  2  0
 36 38  1  0
 38 39  1  0
 39 40  1  0
 40 41  2  0
 40 42  1  0
 42 43  1  0
 43 44  1  0
 44 45  2  0
 44 46  1  0
 46 47  1  0
 47 48  1  0
 48 49  2  0
 48 50  1  0
 50 51  1  0
 51 52  1  0
 52 53  2  0
 52 54  1  0
 54 55  1  0
 55 56  1  0
 56 57  2  0
 54 58  1  6
 58 59  1  0
 59 60  1  0
 60 61  1  0
 61 62  1  0
 62 63  2  0
 62 64  1  0
 50 65  1  1
 65 66  1  0
 46 67  1  1
 67 68  1  0
 67 69  1  0
 42 70  1  1
 70 71  1  0
 71 72  1  0
 72 73  2  0
 72 74  1  0
 34 75  1  6
 75 76  1  0
 30 77  1  6
 77 78  2  0
 77 79  1  0
 79 80  1  0
 80 81  1  0
 81 82  2  0
 81 83  1  0
 83 84  1  0
 84 85  1  1
 85 86  1  0
 86 87  2  0
 87 88  1  0
 88 89  2  0
 89 90  1  0
 90 91  2  0
 84 92  1  0
 92 93  2  0
 92 94  1  0
  5 95  1  6
 95 96  1  0
 96 97  2  0
 96 98  1  0
 98 99  1  6
 99100  1  0
100101  1  0
101102  1  0
102103  1  0
103104  2  0
103105  1  0
 98106  1  0
106107  1  0
107108  2  0
107109  1  0
109110  1  1
110111  1  0
111112  1  0
111113  1  0
109114  1  0
114115  1  0
115116  2  0
115117  1  0
117118  1  0
118119  1  0
119120  1  0
120121  2  0
121122  1  0
122123  2  0
123124  1  0
122125  1  0
117126  1  6
 56 25  1  0
 91 86  1  0
124119  2  0
M  END
$$$$
