
     RDKit          3D

100103  0  0  0  0  0  0  0  0999 V2000
   -8.1261    5.3781   -3.9591 C   0  0  0  0  0  0  0  0  0  0  0  0
   -6.9631    4.6177   -3.3282 C   0  0  1  0  0  0  0  0  0  0  0  0
   -5.9354    5.6534   -2.8232 C   0  0  0  0  0  0  0  0  0  0  0  0
   -5.1784    6.2449   -3.5910 O   0  0  0  0  0  0  0  0  0  0  0  0
   -6.0569    5.9967   -1.4916 N   0  0  0  0  0  0  0  0  0  0  0  0
   -4.9866    6.7460   -0.8244 C   0  0  1  0  0  0  0  0  0  0  0  0
   -5.5179    8.0388   -0.2204 C   0  0  0  0  0  0  0  0  0  0  0  0
   -4.3845    8.9657    0.1058 C   0  0  0  0  0  0  0  0  0  0  0  0
   -3.1981    8.7714   -0.0972 O   0  0  0  0  0  0  0  0  0  0  0  0
   -4.8070   10.1026    0.6908 O   0  0  0  0  0  0  0  0  0  0  0  0
   -4.4610    5.8159    0.2834 C   0  0  0  0  0  0  0  0  0  0  0  0
   -5.1842    4.9710    0.8147 O   0  0  0  0  0  0  0  0  0  0  0  0
   -3.1526    6.0088    0.6501 N   0  0  0  0  0  0  0  0  0  0  0  0
   -2.4320    5.0720    1.5105 C   0  0  1  0  0  0  0  0  0  0  0  0
   -1.8340    3.9165    0.7153 C   0  0  0  0  0  0  0  0  0  0  0  0
   -2.9047    3.0007    0.2040 C   0  0  0  0  0  0  0  0  0  0  0  0
   -3.5616    2.2329    0.8913 O   0  0  0  0  0  0  0  0  0  0  0  0
   -3.0823    3.1536   -1.1212 O   0  0  0  0  0  0  0  0  0  0  0  0
   -1.2901    5.8338    2.2098 C   0  0  0  0  0  0  0  0  0  0  0  0
   -0.9777    6.9826    1.9042 O   0  0  0  0  0  0  0  0  0  0  0  0
   -0.6112    5.1194    3.1777 N   0  0  0  0  0  0  0  0  0  0  0  0
    0.4067    5.7675    4.0127 C   0  0  1  0  0  0  0  0  0  0  0  0
   -0.2182    6.3129    5.2898 C   0  0  0  0  0  0  0  0  0  0  0  0
    1.5570    4.7858    4.3136 C   0  0  0  0  0  0  0  0  0  0  0  0
    2.1581    4.7571    5.3824 O   0  0  0  0  0  0  0  0  0  0  0  0
    1.9420    4.0269    3.2215 N   0  0  0  0  0  0  0  0  0  0  0  0
    2.9154    2.9569    3.3897 C   0  0  0  0  0  0  0  0  0  0  0  0
    3.4862    2.4477    2.0636 C   0  0  0  0  0  0  0  0  0  0  0  0
    4.0064    1.3434    1.9678 O   0  0  0  0  0  0  0  0  0  0  0  0
    3.4029    3.3404    1.0167 N   0  0  0  0  0  0  0  0  0  0  0  0
    4.0343    3.1344   -0.2952 C   0  0  1  0  0  0  0  0  0  0  0  0
    5.5595    3.3386   -0.3434 C   0  0  0  0  0  0  0  0  0  0  0  0
    6.4290    2.1912    0.2137 C   0  0  0  0  0  0  0  0  0  0  0  0
    7.5788    1.8722   -0.7495 C   0  0  0  0  0  0  0  0  0  0  0  0
    7.0156    2.5552    1.5805 C   0  0  0  0  0  0  0  0  0  0  0  0
    3.5396    1.9023   -1.1034 C   0  0  0  0  0  0  0  0  0  0  0  0
    4.1538    1.4244   -2.0580 O   0  0  0  0  0  0  0  0  0  0  0  0
    2.2658    1.5068   -0.7714 N   0  0  0  0  0  0  0  0  0  0  0  0
    1.5237    0.4452   -1.4501 C   0  0  1  0  0  0  0  0  0  0  0  0
    1.6908   -0.9428   -0.7898 C   0  0  0  0  0  0  0  0  0  0  0  0
    1.1821   -2.0399   -1.7330 C   0  0  0  0  0  0  0  0  0  0  0  0
    3.1265   -1.2557   -0.3711 C   0  0  0  0  0  0  0  0  0  0  0  0
    0.0604    0.8746   -1.3377 C   0  0  0  0  0  0  0  0  0  0  0  0
   -0.4203    1.4439   -0.3643 O   0  0  0  0  0  0  0  0  0  0  0  0
   -0.6927    0.5193   -2.3946 O   0  0  0  0  0  0  0  0  0  0  0  0
   -7.4677    3.7168   -2.2814 N   0  0  0  0  0  0  0  0  0  0  0  0
   -6.6446    2.7006   -1.8114 C   0  0  0  0  0  0  0  0  0  0  0  0
   -5.4267    2.7127   -1.9694 O   0  0  0  0  0  0  0  0  0  0  0  0
   -7.3943    1.6041   -1.0261 C   0  0  2  0  0  0  0  0  0  0  0  0
   -7.7456    2.1077    0.3759 C   0  0  0  0  0  0  0  0  0  0  0  0
   -7.6703    0.8522    1.2310 C   0  0  0  0  0  0  0  0  0  0  0  0
   -6.5121    0.0838    0.6122 C   0  0  0  0  0  0  0  0  0  0  0  0
   -6.5880    0.4063   -0.8003 N   0  0  0  0  0  0  0  0  0  0  0  0
   -6.1863   -0.3639   -1.8721 C   0  0  0  0  0  0  0  0  0  0  0  0
   -6.5926   -0.0920   -3.0110 O   0  0  0  0  0  0  0  0  0  0  0  0
   -5.3745   -1.6707   -1.6376 C   0  0  2  0  0  0  0  0  0  0  0  0
   -6.3669   -2.8376   -1.4353 C   0  0  0  0  0  0  0  0  0  0  0  0
   -6.3000   -3.9005   -2.5413 C   0  0  0  0  0  0  0  0  0  0  0  0
   -6.6275   -3.4369   -3.9660 C   0  0  0  0  0  0  0  0  0  0  0  0
   -8.1126   -3.2109   -4.2618 C   0  0  0  0  0  0  0  0  0  0  0  0
   -8.6857   -2.1057   -3.5067 N   0  0  0  0  0  0  0  0  0  0  0  0
   -4.4168   -1.6328   -0.5252 N   0  0  0  0  0  0  0  0  0  0  0  0
   -3.3188   -0.7912   -0.5823 C   0  0  0  0  0  0  0  0  0  0  0  0
   -3.1496    0.0494   -1.4629 O   0  0  0  0  0  0  0  0  0  0  0  0
   -2.3229   -0.9837    0.5691 C   0  0  0  0  0  0  0  0  0  0  0  0
   -2.6222   -2.1085    1.4520 N   0  0  0  0  0  0  0  0  0  0  0  0
   -1.5831   -2.6453    2.1992 C   0  0  0  0  0  0  0  0  0  0  0  0
   -0.4352   -2.2220    2.1220 O   0  0  0  0  0  0  0  0  0  0  0  0
   -1.9974   -3.8123    3.1231 C   0  0  2  0  0  0  0  0  0  0  0  0
   -2.7410   -3.2802    4.3505 C   0  0  0  0  0  0  0  0  0  0  0  0
   -1.6091   -2.9823    5.3310 C   0  0  0  0  0  0  0  0  0  0  0  0
   -0.6222   -4.1129    5.0788 C   0  0  0  0  0  0  0  0  0  0  0  0
   -0.8484   -4.5117    3.7003 N   0  0  0  0  0  0  0  0  0  0  0  0
   -0.0220   -5.4459    3.1033 C   0  0  0  0  0  0  0  0  0  0  0  0
    0.8828   -5.9907    3.7455 O   0  0  0  0  0  0  0  0  0  0  0  0
   -0.3513   -5.8818    1.6546 C   0  0  2  0  0  0  0  0  0  0  0  0
   -1.4201   -6.9854    1.6973 C   0  0  0  0  0  0  0  0  0  0  0  0
   -0.9385   -8.0268    0.6935 C   0  0  0  0  0  0  0  0  0  0  0  0
    0.5743   -7.9270    0.7761 C   0  0  0  0  0  0  0  0  0  0  0  0
    0.8011   -6.5161    1.0090 N   0  0  0  0  0  0  0  0  0  0  0  0
    1.8792   -5.7541    0.6079 C   0  0  0  0  0  0  0  0  0  0  0  0
    1.8627   -4.5276    0.7446 O   0  0  0  0  0  0  0  0  0  0  0  0
    3.1332   -6.4980    0.0814 C   0  0  2  0  0  0  0  0  0  0  0  0
    3.9653   -7.0068    1.2585 C   0  0  0  0  0  0  0  0  0  0  0  0
    4.8362   -5.8003    1.6023 C   0  0  0  0  0  0  0  0  0  0  0  0
    5.1532   -5.1971    0.2393 C   0  0  0  0  0  0  0  0  0  0  0  0
    4.0407   -5.5841   -0.6111 N   0  0  0  0  0  0  0  0  0  0  0  0
    3.7669   -5.1741   -1.9010 C   0  0  0  0  0  0  0  0  0  0  0  0
    2.7550   -5.5827   -2.4807 O   0  0  0  0  0  0  0  0  0  0  0  0
    4.6626   -4.0629   -2.5238 C   0  0  2  0  0  0  0  0  0  0  0  0
    4.2119   -3.7028   -3.9548 C   0  0  0  0  0  0  0  0  0  0  0  0
    5.0265   -2.5993   -4.6312 C   0  0  0  0  0  0  0  0  0  0  0  0
    5.2426   -1.4071   -3.7401 C   0  0  0  0  0  0  0  0  0  0  0  0
    6.1752   -1.2932   -2.9586 O   0  0  0  0  0  0  0  0  0  0  0  0
    4.2587   -0.4986   -3.8407 O   0  0  0  0  0  0  0  0  0  0  0  0
    6.1069   -4.2685   -2.4267 N   0  0  0  0  0  0  0  0  0  0  0  0
    6.7337   -5.3158   -3.0653 C   0  0  0  0  0  0  0  0  0  0  0  0
    6.1324   -6.2599   -3.5686 O   0  0  0  0  0  0  0  0  0  0  0  0
    8.2640   -5.2033   -3.0675 C   0  0  0  0  0  0  0  0  0  0  0  0
    8.8751   -6.4401   -3.5788 N   0  0  0  0  0  0  0  0  0  0  0  0
  2  1  1  1
  2  3  1  0
  3  4  2  0
  3  5  1  0
  5  6  1  0
  6  7  1  1
  7  8  1  0
  8  9  2  0
  8 10  1  0
  6 11  1  0
 11 12  2  0
 11 13  1  0
 13 14  1  0
 14 15  1  6
 15 16  1  0
 16 17  2  0
 16 18  1  0
 14 19  1  0
 19 20  2  0
 19 21  1  0
 21 22  1  0
 22 23  1  1
 22 24  1  0
 24 25  2  0
 24 26  1  0
 26 27  1  0
 27 28  1  0
 28 29  2  0
 28 30  1  0
 30 31  1  0
 31 32  1  1
 32 33  1  0
 33 34  1  0
 33 35  1  0
 31 36  1  0
 36 37  2  0
 36 38  1  0
 39 38  1  1
 39 40  1  0
 40 41  1  0
 40 42  1  0
 39 43  1  0
 43 44  2  0
 43 45  1  0
  2 46  1  0
 46 47  1  0
 47 48  2  0
 49 47  1  6
 49 50  1  0
 50 51  1  0
 51 52  1  0
 52 53  1  0
 53 54  1  0
 54 55  2  0
 54 56  1  0
 56 57  1  1
 57 58  1  0
 58 59  1  0
 59 60  1  0
 60 61  1  0
 56 62  1  0
 62 63  1  0
 63 64  2  0
 63 65  1  0
 65 66  1  0
 66 67  1  0
 67 68  2  0
 69 67  1  6
 69 70  1  0
 70 71  1  0
 71 72  1  0
 72 73  1  0
 73 74  1  0
 74 75  2  0
 76 74  1  1
 76 77  1  0
 77 78  1  0
 78 79  1  0
 79 80  1  0
 80 81  1  0
 81 82  2  0
 83 81  1  1
 83 84  1  0
 84 85  1  0
 85 86  1  0
 86 87  1  0
 87 88  1  0
 88 89  2  0
 88 90  1  0
 90 91  1  6
 91 92  1  0
 92 93  1  0
 93 94  2  0
 93 95  1  0
 90 96  1  0
 96 97  1  0
 97 98  2  0
 97 99  1  0
 99100  1  0
 53 49  1  0
 73 69  1  0
 80 76  1  0
 87 83  1  0
M  END
$$$$
