
     RDKit          3D

238240  0  0  0  0  0  0  0  0999 V2000
   -7.7981    2.2246    6.5521 N   0  0  0  0  0  0  0  0  0  0  0  0
   -7.5602    1.2729    5.4234 C   0  0  2  0  0  0  0  0  0  0  0  0
   -7.3707   -0.1601    5.9447 C   0  0  0  0  0  0  0  0  0  0  0  0
   -7.4981   -1.1481    5.2212 O   0  0  0  0  0  0  0  0  0  0  0  0
   -6.3102    1.6442    4.6045 C   0  0  0  0  0  0  0  0  0  0  0  0
   -6.6378    2.2044    3.2387 C   0  0  0  0  0  0  0  0  0  0  0  0
   -7.2871    1.4039    2.2828 C   0  0  0  0  0  0  0  0  0  0  0  0
   -6.2808    3.5141    2.8971 C   0  0  0  0  0  0  0  0  0  0  0  0
   -7.5873    1.9096    1.0153 C   0  0  0  0  0  0  0  0  0  0  0  0
   -6.5749    4.0168    1.6282 C   0  0  0  0  0  0  0  0  0  0  0  0
   -7.2278    3.2142    0.7008 C   0  0  0  0  0  0  0  0  0  0  0  0
   -7.4997    3.7503   -0.5236 O   0  0  0  0  0  0  0  0  0  0  0  0
   -6.9873   -0.2496    7.2602 N   0  0  0  0  0  0  0  0  0  0  0  0
   -6.8125   -1.5357    7.9174 C   0  0  1  0  0  0  0  0  0  0  0  0
   -5.8914   -1.4674    9.1468 C   0  0  0  0  0  0  0  0  0  0  0  0
   -5.8021   -2.3987    9.9501 O   0  0  0  0  0  0  0  0  0  0  0  0
   -8.1620   -2.1295    8.3157 C   0  0  0  0  0  0  0  0  0  0  0  0
   -5.1131   -0.3380    9.2495 N   0  0  0  0  0  0  0  0  0  0  0  0
   -4.1713   -0.1740   10.3549 C   0  0  2  0  0  0  0  0  0  0  0  0
   -4.0327    1.3357   10.6638 C   0  0  0  0  0  0  0  0  0  0  0  0
   -4.3368    2.2210    9.8612 O   0  0  0  0  0  0  0  0  0  0  0  0
   -2.8361   -0.8345   10.0264 C   0  0  0  0  0  0  0  0  0  0  0  0
   -2.0781   -1.1803   11.2730 C   0  0  0  0  0  0  0  0  0  0  0  0
   -2.2940   -0.7747   12.4043 O   0  0  0  0  0  0  0  0  0  0  0  0
   -1.0501   -2.0163   11.0251 O   0  0  0  0  0  0  0  0  0  0  0  0
   -3.5914    1.5996   11.9471 N   0  0  0  0  0  0  0  0  0  0  0  0
   -3.5272    2.9419   12.5225 C   0  0  2  0  0  0  0  0  0  0  0  0
   -4.9441    3.5610   12.4287 C   0  0  0  0  0  0  0  0  0  0  0  0
   -5.9334    2.9778   12.8719 O   0  0  0  0  0  0  0  0  0  0  0  0
   -2.3702    3.7505   11.9538 C   0  0  0  0  0  0  0  0  0  0  0  0
   -5.0584    4.7338   11.7173 N   0  0  0  0  0  0  0  0  0  0  0  0
   -6.0896    4.7978   10.6821 C   0  0  2  0  0  0  0  0  0  0  0  0
   -5.3262    5.2105    9.4032 C   0  0  0  0  0  0  0  0  0  0  0  0
   -4.3533    5.9632    9.4521 O   0  0  0  0  0  0  0  0  0  0  0  0
   -7.2342    5.7611   11.0620 C   0  0  1  0  0  0  0  0  0  0  0  0
   -6.7610    7.2168   11.1882 C   0  0  0  0  0  0  0  0  0  0  0  0
   -8.4391    5.7038   10.0993 C   0  0  0  0  0  0  0  0  0  0  0  0
   -9.1080    4.3378   10.0239 C   0  0  0  0  0  0  0  0  0  0  0  0
   -5.8223    4.7057    8.2268 N   0  0  0  0  0  0  0  0  0  0  0  0
   -5.2893    5.0749    6.9113 C   0  0  2  0  0  0  0  0  0  0  0  0
   -4.0279    4.3001    6.4691 C   0  0  0  0  0  0  0  0  0  0  0  0
   -3.6811    4.2874    5.2840 O   0  0  0  0  0  0  0  0  0  0  0  0
   -5.0791    6.5941    6.7336 C   0  0  0  0  0  0  0  0  0  0  0  0
   -5.4357    7.0864    5.3464 C   0  0  0  0  0  0  0  0  0  0  0  0
   -6.7579    7.4418    5.0415 C   0  0  0  0  0  0  0  0  0  0  0  0
   -4.4616    7.1758    4.3441 C   0  0  0  0  0  0  0  0  0  0  0  0
   -7.0937    7.8778    3.7580 C   0  0  0  0  0  0  0  0  0  0  0  0
   -4.8014    7.6075    3.0606 C   0  0  0  0  0  0  0  0  0  0  0  0
   -6.1172    7.9589    2.7690 C   0  0  0  0  0  0  0  0  0  0  0  0
   -3.2626    3.6804    7.4377 N   0  0  0  0  0  0  0  0  0  0  0  0
   -2.1721    2.8160    6.9909 C   0  0  2  0  0  0  0  0  0  0  0  0
   -2.7760    1.4506    6.5992 C   0  0  0  0  0  0  0  0  0  0  0  0
   -3.8368    1.0087    7.0463 O   0  0  0  0  0  0  0  0  0  0  0  0
   -0.9969    2.6833    7.9769 C   0  0  2  0  0  0  0  0  0  0  0  0
   -1.3988    2.1245    9.2256 O   0  0  0  0  0  0  0  0  0  0  0  0
   -0.3307    4.0329    8.2375 C   0  0  0  0  0  0  0  0  0  0  0  0
   -2.0530    0.7799    5.6356 N   0  0  0  0  0  0  0  0  0  0  0  0
   -2.5030   -0.4979    5.0965 C   0  0  2  0  0  0  0  0  0  0  0  0
   -1.7200   -1.5900    5.8471 C   0  0  0  0  0  0  0  0  0  0  0  0
   -0.5724   -1.4108    6.2590 O   0  0  0  0  0  0  0  0  0  0  0  0
   -2.2584   -0.5481    3.5872 C   0  0  0  0  0  0  0  0  0  0  0  0
   -3.0663    0.5248    2.8501 C   0  0  0  0  0  0  0  0  0  0  0  0
   -2.6345    0.7395    1.4169 C   0  0  0  0  0  0  0  0  0  0  0  0
   -1.7914    0.0761    0.8253 O   0  0  0  0  0  0  0  0  0  0  0  0
   -3.2885    1.7682    0.8018 N   0  0  0  0  0  0  0  0  0  0  0  0
   -2.3903   -2.7805    6.0213 N   0  0  0  0  0  0  0  0  0  0  0  0
   -1.9288   -3.7385    7.0436 C   0  0  2  0  0  0  0  0  0  0  0  0
   -0.8431   -4.7179    6.5593 C   0  0  0  0  0  0  0  0  0  0  0  0
   -0.8246   -5.9017    6.8969 O   0  0  0  0  0  0  0  0  0  0  0  0
   -3.1255   -4.5406    7.5796 C   0  0  0  0  0  0  0  0  0  0  0  0
   -4.2256   -3.6502    7.7991 O   0  0  0  0  0  0  0  0  0  0  0  0
    0.1755   -4.1642    5.8209 N   0  0  0  0  0  0  0  0  0  0  0  0
    1.3378   -4.9549    5.4064 C   0  0  2  0  0  0  0  0  0  0  0  0
    2.4850   -3.9725    5.0862 C   0  0  0  0  0  0  0  0  0  0  0  0
    2.3131   -2.7517    5.0549 O   0  0  0  0  0  0  0  0  0  0  0  0
    0.9801   -5.8518    4.2058 C   0  0  0  0  0  0  0  0  0  0  0  0
    1.7569   -7.1480    4.1443 C   0  0  0  0  0  0  0  0  0  0  0  0
    2.6316   -7.4048    3.0805 C   0  0  0  0  0  0  0  0  0  0  0  0
    1.5918   -8.1239    5.1391 C   0  0  0  0  0  0  0  0  0  0  0  0
    3.3516   -8.6001    3.0295 C   0  0  0  0  0  0  0  0  0  0  0  0
    2.3045   -9.3243    5.0828 C   0  0  0  0  0  0  0  0  0  0  0  0
    3.1823   -9.5504    4.0281 C   0  0  0  0  0  0  0  0  0  0  0  0
    3.8985  -10.7060    3.9317 O   0  0  0  0  0  0  0  0  0  0  0  0
    3.7216   -4.5482    4.8976 N   0  0  0  0  0  0  0  0  0  0  0  0
    4.8667   -3.7588    4.4459 C   0  0  2  0  0  0  0  0  0  0  0  0
    5.0283   -3.9055    2.9198 C   0  0  0  0  0  0  0  0  0  0  0  0
    4.4944   -4.8142    2.2839 O   0  0  0  0  0  0  0  0  0  0  0  0
    6.1537   -4.2319    5.1373 C   0  0  0  0  0  0  0  0  0  0  0  0
    6.6610   -3.1993    6.1516 C   0  0  0  0  0  0  0  0  0  0  0  0
    8.1854   -3.1701    6.2477 C   0  0  0  0  0  0  0  0  0  0  0  0
    8.8195   -2.9152    4.9611 N   0  0  0  0  0  0  0  0  0  0  0  0
    8.7709   -1.7050    4.3571 C   0  0  0  0  0  0  0  0  0  0  0  0
    7.8621   -0.8141    4.5121 N   0  0  0  0  0  0  0  0  0  0  0  0
    9.8088   -1.5435    3.5121 N   0  0  0  0  0  0  0  0  0  0  0  0
    5.8620   -2.9707    2.3347 N   0  0  0  0  0  0  0  0  0  0  0  0
    6.3130   -3.1331    0.9499 C   0  0  2  0  0  0  0  0  0  0  0  0
    7.5510   -2.2301    0.7492 C   0  0  0  0  0  0  0  0  0  0  0  0
    8.6832   -2.6224    1.0446 O   0  0  0  0  0  0  0  0  0  0  0  0
    5.1695   -2.9288   -0.0588 C   0  0  0  0  0  0  0  0  0  0  0  0
    5.5410   -2.9655   -1.5431 C   0  0  0  0  0  0  0  0  0  0  0  0
    6.2550   -4.2445   -1.9774 C   0  0  0  0  0  0  0  0  0  0  0  0
    6.4621   -4.2581   -3.4940 C   0  0  0  0  0  0  0  0  0  0  0  0
    7.1726   -5.4574   -3.9185 N   0  0  0  0  0  0  0  0  0  0  0  0
    7.3111   -0.9387    0.3372 N   0  0  0  0  0  0  0  0  0  0  0  0
    8.3872    0.0485    0.2325 C   0  0  2  0  0  0  0  0  0  0  0  0
    8.2345    1.0240    1.4155 C   0  0  0  0  0  0  0  0  0  0  0  0
    8.9421    0.9271    2.4180 O   0  0  0  0  0  0  0  0  0  0  0  0
    8.4135    0.7207   -1.1577 C   0  0  0  0  0  0  0  0  0  0  0  0
    9.3942    1.8981   -1.2143 C   0  0  0  0  0  0  0  0  0  0  0  0
    8.8246   -0.3009   -2.2275 C   0  0  0  0  0  0  0  0  0  0  0  0
    7.2154    1.9521    1.3005 N   0  0  0  0  0  0  0  0  0  0  0  0
    6.9093    2.8497    2.4243 C   0  0  2  0  0  0  0  0  0  0  0  0
    5.5931    3.6054    2.1457 C   0  0  0  0  0  0  0  0  0  0  0  0
    4.8490    3.9846    3.0513 O   0  0  0  0  0  0  0  0  0  0  0  0
    8.0417    3.8783    2.6343 C   0  0  0  0  0  0  0  0  0  0  0  0
    7.9037    4.7644    3.8903 C   0  0  0  0  0  0  0  0  0  0  0  0
    7.8516    3.9472    5.1815 C   0  0  0  0  0  0  0  0  0  0  0  0
    9.0728    5.7525    3.9521 C   0  0  0  0  0  0  0  0  0  0  0  0
    5.3984    3.9838    0.8330 N   0  0  0  0  0  0  0  0  0  0  0  0
    4.4815    5.0705    0.4983 C   0  0  2  0  0  0  0  0  0  0  0  0
    3.9799    4.9743   -0.9642 C   0  0  0  0  0  0  0  0  0  0  0  0
    4.3575    4.0983   -1.7381 O   0  0  0  0  0  0  0  0  0  0  0  0
    5.1756    6.4124    0.7480 C   0  0  0  0  0  0  0  0  0  0  0  0
    3.0544    5.9454   -1.2819 N   0  0  0  0  0  0  0  0  0  0  0  0
    2.4033    6.1364   -2.5804 C   0  0  2  0  0  0  0  0  0  0  0  0
    1.4465    4.9801   -2.9489 C   0  0  0  0  0  0  0  0  0  0  0  0
    1.2525    4.0171   -2.2045 O   0  0  0  0  0  0  0  0  0  0  0  0
    3.3307    6.6841   -3.6703 C   0  0  0  0  0  0  0  0  0  0  0  0
    4.1032    5.6720   -4.5111 C   0  0  0  0  0  0  0  0  0  0  0  0
    4.9580    6.3979   -5.5334 C   0  0  0  0  0  0  0  0  0  0  0  0
    5.4138    7.5250   -5.3703 O   0  0  0  0  0  0  0  0  0  0  0  0
    5.2089    5.6991   -6.6730 N   0  0  0  0  0  0  0  0  0  0  0  0
    0.7249    5.1638   -4.1072 N   0  0  0  0  0  0  0  0  0  0  0  0
   -0.3034    4.2120   -4.5408 C   0  0  2  0  0  0  0  0  0  0  0  0
   -0.5237    4.4226   -6.0589 C   0  0  0  0  0  0  0  0  0  0  0  0
   -0.0129    5.3578   -6.6760 O   0  0  0  0  0  0  0  0  0  0  0  0
   -1.6042    4.4340   -3.7411 C   0  0  0  0  0  0  0  0  0  0  0  0
   -2.4781    3.1802   -3.5329 C   0  0  0  0  0  0  0  0  0  0  0  0
   -1.7499    2.0856   -2.7491 C   0  0  0  0  0  0  0  0  0  0  0  0
   -3.7687    3.5596   -2.8017 C   0  0  0  0  0  0  0  0  0  0  0  0
   -1.3201    3.4878   -6.6659 N   0  0  0  0  0  0  0  0  0  0  0  0
   -1.5285    3.4198   -8.1212 C   0  0  2  0  0  0  0  0  0  0  0  0
   -2.7087    2.4421   -8.3856 C   0  0  0  0  0  0  0  0  0  0  0  0
   -3.5090    2.1341   -7.4961 O   0  0  0  0  0  0  0  0  0  0  0  0
   -0.2062    3.0564   -8.8189 C   0  0  0  0  0  0  0  0  0  0  0  0
    0.5365    4.2337   -9.1502 O   0  0  0  0  0  0  0  0  0  0  0  0
   -2.9049    2.0263   -9.6879 N   0  0  0  0  0  0  0  0  0  0  0  0
   -3.8916    0.9920  -10.0198 C   0  0  2  0  0  0  0  0  0  0  0  0
   -3.2515   -0.4180   -9.8849 C   0  0  0  0  0  0  0  0  0  0  0  0
   -2.0998   -0.5845   -9.4914 O   0  0  0  0  0  0  0  0  0  0  0  0
   -4.4085    1.2237  -11.4359 C   0  0  0  0  0  0  0  0  0  0  0  0
   -4.0798   -1.4708  -10.2262 N   0  0  0  0  0  0  0  0  0  0  0  0
   -3.7394   -2.8846   -9.9750 C   0  0  2  0  0  0  0  0  0  0  0  0
   -4.1486   -3.1861   -8.5067 C   0  0  0  0  0  0  0  0  0  0  0  0
   -5.1636   -2.6697   -8.0357 O   0  0  0  0  0  0  0  0  0  0  0  0
   -2.3289   -3.2784  -10.4371 C   0  0  0  0  0  0  0  0  0  0  0  0
   -2.2319   -4.7613  -10.8245 C   0  0  0  0  0  0  0  0  0  0  0  0
   -0.8627   -5.1009  -11.4150 C   0  0  0  0  0  0  0  0  0  0  0  0
   -0.7793   -6.5401  -11.6263 N   0  0  0  0  0  0  0  0  0  0  0  0
    0.1038   -7.0585  -12.5089 C   0  0  0  0  0  0  0  0  0  0  0  0
    0.8014   -6.3944  -13.3525 N   0  0  0  0  0  0  0  0  0  0  0  0
    0.1768   -8.4058  -12.4540 N   0  0  0  0  0  0  0  0  0  0  0  0
   -3.4154   -4.0972   -7.7948 N   0  0  0  0  0  0  0  0  0  0  0  0
   -3.7238   -4.5057   -6.4139 C   0  0  2  0  0  0  0  0  0  0  0  0
   -2.3708   -4.9302   -5.7802 C   0  0  0  0  0  0  0  0  0  0  0  0
   -1.3396   -4.9103   -6.4515 O   0  0  0  0  0  0  0  0  0  0  0  0
   -4.7226   -5.6774   -6.3578 C   0  0  0  0  0  0  0  0  0  0  0  0
   -6.1385   -5.3062   -6.8091 C   0  0  0  0  0  0  0  0  0  0  0  0
   -7.1712   -6.3987   -6.5122 C   0  0  0  0  0  0  0  0  0  0  0  0
   -7.5563   -6.4623   -5.0329 C   0  0  0  0  0  0  0  0  0  0  0  0
   -8.5705   -7.4911   -4.8198 N   0  0  0  0  0  0  0  0  0  0  0  0
   -2.4322   -5.3497   -4.4751 N   0  0  0  0  0  0  0  0  0  0  0  0
   -1.2989   -5.7289   -3.6243 C   0  0  2  0  0  0  0  0  0  0  0  0
   -1.0147   -4.5866   -2.6207 C   0  0  0  0  0  0  0  0  0  0  0  0
   -1.8332   -4.3519   -1.7239 O   0  0  0  0  0  0  0  0  0  0  0  0
   -0.0555   -6.3368   -4.2911 C   0  0  0  0  0  0  0  0  0  0  0  0
   -0.3043   -7.6520   -5.0578 C   0  0  0  0  0  0  0  0  0  0  0  0
   -0.6767   -8.8058   -4.1244 C   0  0  0  0  0  0  0  0  0  0  0  0
    0.9484   -8.0245   -5.8570 C   0  0  0  0  0  0  0  0  0  0  0  0
    0.1156   -3.8226   -2.7950 N   0  0  0  0  0  0  0  0  0  0  0  0
    0.4034   -2.7149   -1.8882 C   0  0  2  0  0  0  0  0  0  0  0  0
    1.3722   -1.6963   -2.5335 C   0  0  0  0  0  0  0  0  0  0  0  0
    2.3794   -2.0393   -3.1520 O   0  0  0  0  0  0  0  0  0  0  0  0
    1.0827   -3.2379   -0.6021 C   0  0  0  0  0  0  0  0  0  0  0  0
    0.6016   -2.5163    0.6683 C   0  0  0  0  0  0  0  0  0  0  0  0
    1.6741   -2.5793    1.7541 C   0  0  0  0  0  0  0  0  0  0  0  0
   -0.7001   -3.1267    1.1871 C   0  0  0  0  0  0  0  0  0  0  0  0
    1.0632   -0.3760   -2.2967 N   0  0  0  0  0  0  0  0  0  0  0  0
    2.0272    0.7099   -2.4498 C   0  0  2  0  0  0  0  0  0  0  0  0
    2.5401    0.9472   -3.8991 C   0  0  0  0  0  0  0  0  0  0  0  0
    1.8419    1.4363   -4.7872 O   0  0  0  0  0  0  0  0  0  0  0  0
    3.1543    0.6517   -1.4075 C   0  0  0  0  0  0  0  0  0  0  0  0
    2.6845    0.9853    0.0076 C   0  0  0  0  0  0  0  0  0  0  0  0
    3.8057    0.7656    1.0000 C   0  0  0  0  0  0  0  0  0  0  0  0
    4.9713    0.5289    0.6832 O   0  0  0  0  0  0  0  0  0  0  0  0
    3.4368    0.8497    2.3046 N   0  0  0  0  0  0  0  0  0  0  0  0
    3.8332    0.5367   -4.1899 N   0  0  0  0  0  0  0  0  0  0  0  0
    4.7439    1.5627   -4.7436 C   0  0  2  0  0  0  0  0  0  0  0  0
    4.4042    1.9322   -6.2030 C   0  0  0  0  0  0  0  0  0  0  0  0
    4.7179    3.0128   -6.6964 O   0  0  0  0  0  0  0  0  0  0  0  0
    6.1865    1.0633   -4.6975 C   0  0  0  0  0  0  0  0  0  0  0  0
    7.1504    2.1879   -4.9481 C   0  0  0  0  0  0  0  0  0  0  0  0
    6.9632    3.3767   -4.7555 O   0  0  0  0  0  0  0  0  0  0  0  0
    8.3359    1.7454   -5.4051 O   0  0  0  0  0  0  0  0  0  0  0  0
    3.8816    0.9048   -6.9457 N   0  0  0  0  0  0  0  0  0  0  0  0
    3.2853    1.1435   -8.2668 C   0  0  2  0  0  0  0  0  0  0  0  0
    2.0936    0.1681   -8.4406 C   0  0  0  0  0  0  0  0  0  0  0  0
    1.6972   -0.2541   -9.5209 O   0  0  0  0  0  0  0  0  0  0  0  0
    4.3575    1.0963   -9.3829 C   0  0  1  0  0  0  0  0  0  0  0  0
    4.9580   -0.3042   -9.5536 C   0  0  0  0  0  0  0  0  0  0  0  0
    3.8177    1.6654  -10.7109 C   0  0  0  0  0  0  0  0  0  0  0  0
    4.9111    1.9507  -11.7332 C   0  0  0  0  0  0  0  0  0  0  0  0
    1.4503   -0.1150   -7.2504 N   0  0  0  0  0  0  0  0  0  0  0  0
    0.3113   -1.0187   -7.1533 C   0  0  2  0  0  0  0  0  0  0  0  0
   -0.8623   -0.2245   -6.5267 C   0  0  0  0  0  0  0  0  0  0  0  0
   -0.7390    0.9349   -6.1235 O   0  0  0  0  0  0  0  0  0  0  0  0
    0.6721   -2.2104   -6.2545 C   0  0  0  0  0  0  0  0  0  0  0  0
    1.6835   -3.2464   -6.7902 C   0  0  0  0  0  0  0  0  0  0  0  0
    1.3503   -3.7443   -8.1946 C   0  0  0  0  0  0  0  0  0  0  0  0
    3.1365   -2.7797   -6.7181 C   0  0  0  0  0  0  0  0  0  0  0  0
   -2.0648   -0.8909   -6.4342 N   0  0  0  0  0  0  0  0  0  0  0  0
   -3.1158   -0.3923   -5.5499 C   0  0  2  0  0  0  0  0  0  0  0  0
   -3.1115   -1.2380   -4.2649 C   0  0  0  0  0  0  0  0  0  0  0  0
   -2.2753   -2.1139   -4.0421 O   0  0  0  0  0  0  0  0  0  0  0  0
   -4.4971   -0.3939   -6.2045 C   0  0  0  0  0  0  0  0  0  0  0  0
   -5.2166    0.7811   -5.8064 O   0  0  0  0  0  0  0  0  0  0  0  0
   -4.0989   -0.9130   -3.3636 N   0  0  0  0  0  0  0  0  0  0  0  0
   -4.2611   -1.6476   -2.1131 C   0  0  2  0  0  0  0  0  0  0  0  0
   -4.8325   -3.0502   -2.4157 C   0  0  0  0  0  0  0  0  0  0  0  0
   -5.5380   -3.3256   -3.3831 O   0  0  0  0  0  0  0  0  0  0  0  0
   -5.1902   -0.8331   -1.2021 C   0  0  0  0  0  0  0  0  0  0  0  0
   -5.3706   -1.3753    0.2170 C   0  0  0  0  0  0  0  0  0  0  0  0
   -6.7123   -2.0842    0.4033 C   0  0  0  0  0  0  0  0  0  0  0  0
   -6.8919   -2.4090    1.8086 N   0  0  0  0  0  0  0  0  0  0  0  0
   -8.0836   -2.8641    2.2600 C   0  0  0  0  0  0  0  0  0  0  0  0
   -9.1637   -2.9105    1.5711 N   0  0  0  0  0  0  0  0  0  0  0  0
   -7.9990   -3.2606    3.5445 N   0  0  0  0  0  0  0  0  0  0  0  0
   -4.5287   -4.0151   -1.4933 N   0  0  0  0  0  0  0  0  0  0  0  0
  2  1  1  1
  2  3  1  0
  3  4  2  0
  2  5  1  0
  5  6  1  0
  6  7  1  0
  7  9  2  0
  9 11  1  0
 11 10  2  0
 10  8  1  0
  8  6  2  0
 11 12  1  0
 13 14  1  0
 14 15  1  0
 15 16  2  0
 14 17  1  1
  3 13  1  0
 18 19  1  0
 19 20  1  0
 20 21  2  0
 19 22  1  6
 22 23  1  0
 23 24  2  0
 23 25  1  0
 15 18  1  0
 26 27  1  0
 27 28  1  0
 28 29  2  0
 27 30  1  6
 20 26  1  0
 32 31  1  1
 32 33  1  0
 33 34  2  0
 32 35  1  0
 35 36  1  6
 35 37  1  0
 37 38  1  0
 28 31  1  0
 39 40  1  0
 40 41  1  0
 41 42  2  0
 40 43  1  1
 43 44  1  0
 44 45  2  0
 45 47  1  0
 47 49  2  0
 49 48  1  0
 48 46  2  0
 46 44  1  0
 33 39  1  0
 51 50  1  1
 51 52  1  0
 52 53  2  0
 51 54  1  0
 54 55  1  0
 54 56  1  1
 41 50  1  0
 57 58  1  0
 58 59  1  0
 59 60  2  0
 58 61  1  6
 61 62  1  0
 62 63  1  0
 63 64  2  0
 63 65  1  0
 52 57  1  0
 66 67  1  0
 67 68  1  0
 68 69  2  0
 67 70  1  6
 70 71  1  0
 59 66  1  0
 72 73  1  0
 73 74  1  0
 74 75  2  0
 73 76  1  6
 76 77  1  0
 77 78  1  0
 78 80  2  0
 80 82  1  0
 82 81  2  0
 81 79  1  0
 79 77  2  0
 82 83  1  0
 68 72  1  0
 84 85  1  0
 85 86  1  0
 86 87  2  0
 85 88  1  1
 88 89  1  0
 89 90  1  0
 90 91  1  0
 91 92  1  0
 92 93  2  0
 92 94  1  0
 74 84  1  0
 95 96  1  0
 96 97  1  0
 97 98  2  0
 96 99  1  6
 99100  1  0
100101  1  0
101102  1  0
102103  1  0
 86 95  1  0
105104  1  6
105106  1  0
106107  2  0
105108  1  0
108109  1  0
108110  1  0
 97104  1  0
111112  1  0
112113  1  0
113114  2  0
112115  1  6
115116  1  0
116117  1  0
116118  1  0
106111  1  0
119120  1  0
120121  1  0
121122  2  0
120123  1  6
113119  1  0
124125  1  0
125126  1  0
126127  2  0
125128  1  6
128129  1  0
129130  1  0
130131  2  0
130132  1  0
121124  1  0
133134  1  0
134135  1  0
135136  2  0
134137  1  1
137138  1  0
138139  1  0
138140  1  0
126133  1  0
141142  1  0
142143  1  0
143144  2  0
142145  1  6
145146  1  0
135141  1  0
147148  1  0
148149  1  0
149150  2  0
148151  1  6
143147  1  0
152153  1  0
153154  1  0
154155  2  0
153156  1  1
156157  1  0
157158  1  0
158159  1  0
159160  1  0
160161  2  0
160162  1  0
149152  1  0
163164  1  0
164165  1  0
165166  2  0
164167  1  6
167168  1  0
168169  1  0
169170  1  0
170171  1  0
154163  1  0
172173  1  0
173174  1  0
174175  2  0
173176  1  6
176177  1  0
177178  1  0
177179  1  0
165172  1  0
180181  1  0
181182  1  0
182183  2  0
181184  1  1
184185  1  0
185186  1  0
185187  1  0
174180  1  0
188189  1  0
189190  1  0
190191  2  0
189192  1  1
192193  1  0
193194  1  0
194195  2  0
194196  1  0
182188  1  0
197198  1  0
198199  1  0
199200  2  0
198201  1  6
201202  1  0
202203  2  0
202204  1  0
190197  1  0
206205  1  1
206207  1  0
207208  2  0
206209  1  0
209210  1  6
209211  1  0
211212  1  0
199205  1  0
213214  1  0
214215  1  0
215216  2  0
214217  1  1
217218  1  0
218219  1  0
218220  1  0
207213  1  0
221222  1  0
222223  1  0
223224  2  0
222225  1  6
225226  1  0
215221  1  0
227228  1  0
228229  1  0
229230  2  0
228231  1  1
231232  1  0
232233  1  0
233234  1  0
234235  1  0
235236  2  0
235237  1  0
223227  1  0
229238  1  0
M  END
$$$$
