
     RDKit          3D

 60 61  0  0  0  0  0  0  0  0999 V2000
   -2.4922    2.9367   -0.4761 C   0  0  0  0  0  0  0  0  0  0  0  0
   -2.1781    1.4982   -0.8743 C   0  0  1  0  0  0  0  0  0  0  0  0
   -3.2528    0.9436   -1.8316 C   0  0  0  0  0  0  0  0  0  0  0  0
   -3.0327    0.6746   -3.0103 O   0  0  0  0  0  0  0  0  0  0  0  0
   -4.4831    0.7843   -1.2378 N   0  0  0  0  0  0  0  0  0  0  0  0
   -5.6193    0.2311   -1.9480 C   0  0  0  0  0  0  0  0  0  0  0  0
   -6.9060    0.5791   -1.1958 C   0  0  0  0  0  0  0  0  0  0  0  0
   -7.3808    1.7111   -1.1807 O   0  0  0  0  0  0  0  0  0  0  0  0
   -7.4050   -0.4459   -0.4191 N   0  0  0  0  0  0  0  0  0  0  0  0
   -8.4860   -0.2395    0.5502 C   0  0  0  0  0  0  0  0  0  0  0  0
   -7.9282   -0.2194    1.9821 C   0  0  0  0  0  0  0  0  0  0  0  0
   -8.5714   -0.5724    2.9644 O   0  0  0  0  0  0  0  0  0  0  0  0
   -6.6473    0.2669    2.0634 N   0  0  0  0  0  0  0  0  0  0  0  0
   -5.7180   -0.0523    3.1397 C   0  0  1  0  0  0  0  0  0  0  0  0
   -5.5295   -1.5629    3.3374 C   0  0  0  0  0  0  0  0  0  0  0  0
   -4.9914   -2.2445    2.0997 C   0  0  0  0  0  0  0  0  0  0  0  0
   -5.2231   -1.9355    0.9393 O   0  0  0  0  0  0  0  0  0  0  0  0
   -4.2071   -3.2931    2.4065 O   0  0  0  0  0  0  0  0  0  0  0  0
   -4.3741    0.5968    2.7357 C   0  0  0  0  0  0  0  0  0  0  0  0
   -4.1397    0.8991    1.5622 O   0  0  0  0  0  0  0  0  0  0  0  0
   -3.4379    0.7385    3.7389 N   0  0  0  0  0  0  0  0  0  0  0  0
   -2.0128    0.7835    3.3805 C   0  0  1  0  0  0  0  0  0  0  0  0
   -1.1918    1.5068    4.4318 C   0  0  0  0  0  0  0  0  0  0  0  0
   -1.6016   -0.6960    3.3107 C   0  0  0  0  0  0  0  0  0  0  0  0
   -2.1066   -1.5236    4.0721 O   0  0  0  0  0  0  0  0  0  0  0  0
   -0.6772   -1.0386    2.3501 N   0  0  0  0  0  0  0  0  0  0  0  0
   -0.6705   -2.4235    1.8608 C   0  0  1  0  0  0  0  0  0  0  0  0
   -1.5430   -2.5630    0.5974 C   0  0  0  0  0  0  0  0  0  0  0  0
   -2.2981   -3.7846    0.6156 O   0  0  0  0  0  0  0  0  0  0  0  0
    0.7373   -2.9751    1.6019 C   0  0  0  0  0  0  0  0  0  0  0  0
    0.9482   -3.9098    0.8308 O   0  0  0  0  0  0  0  0  0  0  0  0
    1.7132   -2.4503    2.4239 N   0  0  0  0  0  0  0  0  0  0  0  0
    3.1032   -2.8080    2.2183 C   0  0  0  0  0  0  0  0  0  0  0  0
    3.6819   -2.0115    1.0464 C   0  0  0  0  0  0  0  0  0  0  0  0
    3.1088   -1.0377    0.5608 O   0  0  0  0  0  0  0  0  0  0  0  0
    4.9184   -2.4460    0.6157 N   0  0  0  0  0  0  0  0  0  0  0  0
    5.4984   -1.9454   -0.6350 C   0  0  1  0  0  0  0  0  0  0  0  0
    6.8381   -1.2342   -0.4099 C   0  0  0  0  0  0  0  0  0  0  0  0
    6.8243   -0.1421    0.6630 C   0  0  0  0  0  0  0  0  0  0  0  0
    5.6862    0.8354    0.5545 C   0  0  0  0  0  0  0  0  0  0  0  0
    5.1029    1.3308    1.5063 O   0  0  0  0  0  0  0  0  0  0  0  0
    5.3639    1.1329   -0.7173 O   0  0  0  0  0  0  0  0  0  0  0  0
    5.7052   -3.1512   -1.5517 C   0  0  0  0  0  0  0  0  0  0  0  0
    5.7671   -4.3179   -1.1897 O   0  0  0  0  0  0  0  0  0  0  0  0
    5.8501   -2.8207   -2.8482 O   0  0  0  0  0  0  0  0  0  0  0  0
   -0.8526    1.4318   -1.4699 N   0  0  0  0  0  0  0  0  0  0  0  0
    0.2699    1.1176   -0.7432 C   0  0  0  0  0  0  0  0  0  0  0  0
    0.2132    0.7840    0.4442 O   0  0  0  0  0  0  0  0  0  0  0  0
    1.6065    1.2639   -1.5156 C   0  0  2  0  0  0  0  0  0  0  0  0
    1.8947    0.0073   -2.3565 C   0  0  0  0  0  0  0  0  0  0  0  0
    1.0424   -0.0699   -3.5859 C   0  0  0  0  0  0  0  0  0  0  0  0
   -0.0870   -0.8467   -3.7517 C   0  0  0  0  0  0  0  0  0  0  0  0
   -0.6342   -0.5548   -4.9724 N   0  0  0  0  0  0  0  0  0  0  0  0
    0.1493    0.3589   -5.6371 C   0  0  0  0  0  0  0  0  0  0  0  0
   -0.0124    0.9323   -6.9037 C   0  0  0  0  0  0  0  0  0  0  0  0
    0.9497    1.8548   -7.3250 C   0  0  0  0  0  0  0  0  0  0  0  0
    2.0269    2.1910   -6.5089 C   0  0  0  0  0  0  0  0  0  0  0  0
    2.1704    1.6121   -5.2427 C   0  0  0  0  0  0  0  0  0  0  0  0
    1.2155    0.6758   -4.7956 C   0  0  0  0  0  0  0  0  0  0  0  0
    2.7046    1.5146   -0.5380 N   0  0  0  0  0  0  0  0  0  0  0  0
  2  1  1  6
  2  3  1  0
  3  4  2  0
  3  5  1  0
  5  6  1  0
  6  7  1  0
  7  8  2  0
  7  9  1  0
  9 10  1  0
 10 11  1  0
 11 12  2  0
 11 13  1  0
 13 14  1  0
 14 15  1  6
 15 16  1  0
 16 17  2  0
 16 18  1  0
 14 19  1  0
 19 20  2  0
 19 21  1  0
 21 22  1  0
 22 23  1  1
 22 24  1  0
 24 25  2  0
 24 26  1  0
 26 27  1  0
 27 28  1  6
 28 29  1  0
 27 30  1  0
 30 31  2  0
 30 32  1  0
 32 33  1  0
 33 34  1  0
 34 35  2  0
 34 36  1  0
 36 37  1  0
 37 38  1  1
 38 39  1  0
 39 40  1  0
 40 41  2  0
 40 42  1  0
 37 43  1  0
 43 44  2  0
 43 45  1  0
  2 46  1  0
 46 47  1  0
 47 48  2  0
 47 49  1  0
 49 50  1  0
 50 51  1  0
 51 52  2  0
 52 53  1  0
 53 54  1  0
 54 55  2  0
 55 56  1  0
 56 57  2  0
 57 58  1  0
 58 59  2  0
 49 60  1  1
 59 51  1  0
 59 54  1  0
M  END
$$$$
