219042
     RDKit          3D

 27 26  0  0  1  0  0  0  0  0999 V2000
   -0.9852    0.9372   -1.5502 O   0  0  0  0  0  0  0  0  0  0  0  0
   -3.5761    0.0383    1.3099 O   0  0  0  0  0  0  0  0  0  0  0  0
    2.6755   -0.1249    1.5734 O   0  0  0  0  0  0  0  0  0  0  0  0
    1.1283   -3.6777    1.2522 O   0  0  0  0  0  0  0  0  0  0  0  0
    0.2887    4.3017   -0.3018 O   0  0  0  0  0  0  0  0  0  0  0  0
   -1.0869   -4.0933    0.9830 O   0  0  0  0  0  0  0  0  0  0  0  0
   -1.4534    3.1354    0.5756 O   0  0  0  0  0  0  0  0  0  0  0  0
    4.4844   -0.6372   -1.4832 O   0  0  0  0  0  0  0  0  0  0  0  0
    6.5699   -0.7123   -0.5928 O   0  0  0  0  0  0  0  0  0  0  0  0
   -2.9489   -0.7465   -0.7815 N   0  0  0  0  0  0  0  0  0  0  0  0
    0.2805    0.2350    0.2656 N   0  0  0  0  0  0  0  0  0  0  0  0
    3.6463    1.3163    0.0348 N   0  0  0  0  0  0  0  0  0  0  0  0
   -6.2201   -0.0789    0.5345 N   0  0  0  0  0  0  0  0  0  0  0  0
   -1.5990   -1.1188   -0.4336 C   0  0  1  0  0  0  0  0  0  0  0  0
   -1.1155   -2.2814   -1.3085 C   0  0  0  0  0  0  0  0  0  0  0  0
    1.2398    1.3157    0.2560 C   0  0  1  0  0  0  0  0  0  0  0  0
   -0.7602    0.1352   -0.6455 C   0  0  0  0  0  0  0  0  0  0  0  0
    0.1478   -2.9752   -0.7935 C   0  0  0  0  0  0  0  0  0  0  0  0
    0.8008    2.4761    1.1451 C   0  0  0  0  0  0  0  0  0  0  0  0
   -3.8375   -0.1914    0.1308 C   0  0  0  0  0  0  0  0  0  0  0  0
    2.5781    0.7544    0.7198 C   0  0  0  0  0  0  0  0  0  0  0  0
   -5.1974    0.0931   -0.4941 C   0  0  2  0  0  0  0  0  0  0  0  0
   -0.0380   -3.6308    0.5566 C   0  0  0  0  0  0  0  0  0  0  0  0
   -0.2485    3.3205    0.4646 C   0  0  0  0  0  0  0  0  0  0  0  0
   -5.2385    1.5125   -1.0462 C   0  0  0  0  0  0  0  0  0  0  0  0
    5.0151    0.9148    0.2612 C   0  0  0  0  0  0  0  0  0  0  0  0
    5.4497   -0.2183   -0.6322 C   0  0  0  0  0  0  0  0  0  0  0  0
  1 17  2  0
  2 20  2  0
  3 21  2  0
  4 23  1  0
  5 24  1  0
  6 23  2  0
  7 24  2  0
  8 27  1  0
  9 27  2  0
 10 14  1  0
 10 20  1  0
 11 16  1  0
 11 17  1  0
 12 21  1  0
 12 26  1  0
 13 22  1  0
 14 15  1  6
 14 17  1  0
 15 18  1  0
 16 19  1  1
 16 21  1  0
 18 23  1  0
 19 24  1  0
 20 22  1  0
 22 25  1  1
 26 27  1  0
M  END
$$$$
