
     RDKit          3D

 25 24  0  0  0  0  0  0  0  0999 V2000
    1.0137    0.2158   -5.2127 N   0  0  0  0  0  0  0  0  0  0  0  0
    1.8094    0.5247   -4.0257 C   0  0  0  0  0  0  0  0  0  0  0  0
    0.8849    0.9644   -2.9016 C   0  0  0  0  0  0  0  0  0  0  0  0
    1.1650    1.9347   -2.2006 O   0  0  0  0  0  0  0  0  0  0  0  0
   -0.1537    0.1258   -2.7948 N   0  0  0  0  0  0  0  0  0  0  0  0
   -1.1248    0.4405   -1.7619 C   0  0  1  0  0  0  0  0  0  0  0  0
   -2.5338   -0.0982   -2.0907 C   0  0  0  0  0  0  0  0  0  0  0  0
   -2.5605   -1.5534   -2.3965 C   0  0  0  0  0  0  0  0  0  0  0  0
   -2.9846   -2.6196   -1.6356 C   0  0  0  0  0  0  0  0  0  0  0  0
   -2.7137   -3.7228   -2.3978 N   0  0  0  0  0  0  0  0  0  0  0  0
   -2.1456   -3.2913   -3.5653 C   0  0  0  0  0  0  0  0  0  0  0  0
   -2.0538   -1.9860   -3.6025 N   0  0  0  0  0  0  0  0  0  0  0  0
   -0.6240   -0.1555   -0.4426 C   0  0  0  0  0  0  0  0  0  0  0  0
    0.2462   -1.0220   -0.3737 O   0  0  0  0  0  0  0  0  0  0  0  0
   -1.2835    0.3810    0.6576 N   0  0  0  0  0  0  0  0  0  0  0  0
   -0.9482    0.0246    2.0364 C   0  0  1  0  0  0  0  0  0  0  0  0
    0.2592    0.8500    2.5081 C   0  0  0  0  0  0  0  0  0  0  0  0
    0.8092    0.3611    3.8524 C   0  0  0  0  0  0  0  0  0  0  0  0
    1.9579    1.2236    4.3902 C   0  0  0  0  0  0  0  0  0  0  0  0
    3.2004    1.3146    3.5014 C   0  0  0  0  0  0  0  0  0  0  0  0
    3.8141    0.0125    3.2721 N   0  0  0  0  0  0  0  0  0  0  0  0
   -2.1984    0.1872    2.9202 C   0  0  0  0  0  0  0  0  0  0  0  0
   -2.9113   -0.8536    3.0131 O   0  0  0  0  0  0  0  0  0  0  0  0
   -2.3762    1.3280    3.4307 O   0  0  0  0  0  0  0  0  0  0  0  0
   -0.6787   -0.8068   -4.5790 Cu  0  0  0  0  0 15  0  0  0  0  0  0
  1  2  1  0
  2  3  1  0
  3  4  2  0
  3  5  1  0
  5  6  1  0
  6  7  1  6
  7  8  1  0
  8  9  2  0
  9 10  1  0
 10 11  1  0
 11 12  2  0
  6 13  1  0
 13 14  2  0
 13 15  1  0
 15 16  1  0
 16 17  1  1
 17 18  1  0
 18 19  1  0
 19 20  1  0
 20 21  1  0
 16 22  1  0
 22 23  2  0
 22 24  1  0
 12  8  1  0
M  CHG  3   5  -1  24  -1  25   2
M  END
$$$$
