
     RDKit          3D

 25 24  0  0  0  0  0  0  0  0999 V2000
    2.8337   -2.6113   -1.9379 N   0  0  0  0  0  0  0  0  0  0  0  0
    2.6788   -1.3854   -1.1567 C   0  0  0  0  0  0  0  0  0  0  0  0
    1.4078   -1.4125   -0.3782 C   0  0  0  0  0  0  0  0  0  0  0  0
    1.1645   -0.4166    0.3390 O   0  0  0  0  0  0  0  0  0  0  0  0
    0.5890   -2.5502   -0.5115 N   0  0  0  0  0  0  0  0  0  0  0  0
   -0.8162   -2.4983   -0.1827 C   0  0  1  0  0  0  0  0  0  0  0  0
   -0.7707   -3.0772    1.2833 C   0  0  0  0  0  0  0  0  0  0  0  0
   -0.0965   -4.4102    1.0111 C   0  0  0  0  0  0  0  0  0  0  0  0
    1.2910   -4.4385    0.9072 C   0  0  0  0  0  0  0  0  0  0  0  0
    1.5890   -5.6667    0.5449 N   0  0  0  0  0  0  0  0  0  0  0  0
    0.4567   -6.3756    0.4312 C   0  0  0  0  0  0  0  0  0  0  0  0
   -0.6233   -5.5921    0.7253 N   0  0  0  0  0  0  0  0  0  0  0  0
   -1.5271   -1.2577   -0.2838 C   0  0  0  0  0  0  0  0  0  0  0  0
   -2.7015   -1.2166    0.2585 O   0  0  0  0  0  0  0  0  0  0  0  0
   -1.1210   -0.0612   -0.9022 N   0  0  0  0  0  0  0  0  0  0  0  0
   -2.0393    1.1559   -0.8948 C   0  0  1  0  0  0  0  0  0  0  0  0
   -1.2550    2.1671   -0.1844 C   0  0  0  0  0  0  0  0  0  0  0  0
   -1.7705    3.5283    0.0926 C   0  0  0  0  0  0  0  0  0  0  0  0
   -2.1221    4.4137   -1.0414 C   0  0  0  0  0  0  0  0  0  0  0  0
   -2.5793    5.8040   -0.5278 C   0  0  0  0  0  0  0  0  0  0  0  0
   -1.5502    6.4514    0.2296 N   0  0  0  0  0  0  0  0  0  0  0  0
   -2.3310    1.3430   -2.3274 C   0  0  0  0  0  0  0  0  0  0  0  0
   -1.4870    0.9479   -3.2149 O   0  0  0  0  0  0  0  0  0  0  0  0
   -3.4742    1.9206   -2.8503 O   0  0  0  0  0  0  0  0  0  0  0  0
    2.2114   -4.1390   -0.6965 Cu  0  0  0  0  0 15  0  0  0  0  0  0
  1  2  1  0
  2  3  1  0
  3  4  2  0
  3  5  1  0
  5  6  1  0
  6  7  1  1
  7  8  1  0
  8  9  2  0
  9 10  1  0
 10 11  2  0
 11 12  1  0
  6 13  1  0
 13 14  2  0
 13 15  1  0
 15 16  1  0
 16 17  1  6
 17 18  1  0
 18 19  1  0
 19 20  1  0
 20 21  1  0
 16 22  1  0
 22 23  2  0
 22 24  1  0
 12  8  1  0
M  CHG  3   5  -1  24  -1  25   2
M  END
$$$$
