124886
     RDKit          3D

 20 19  0  0  1  0  0  0  0  0999 V2000
   -1.7509   -1.5088   -2.1175 S   0  0  0  0  0  0  0  0  0  0  0  0
    1.2983    2.0308   -0.8892 O   0  0  0  0  0  0  0  0  0  0  0  0
   -2.1637   -0.2769    1.4389 O   0  0  0  0  0  0  0  0  0  0  0  0
    4.4181   -2.0946    0.9251 O   0  0  0  0  0  0  0  0  0  0  0  0
    5.7469   -1.3999   -0.7759 O   0  0  0  0  0  0  0  0  0  0  0  0
   -4.9838   -1.1600   -0.5671 O   0  0  0  0  0  0  0  0  0  0  0  0
   -6.6057   -0.8539    0.9897 O   0  0  0  0  0  0  0  0  0  0  0  0
   -0.0140    0.2979   -0.0702 N   0  0  0  0  0  0  0  0  0  0  0  0
    6.0965    1.0018    0.5309 N   0  0  0  0  0  0  0  0  0  0  0  0
   -3.6061    0.9555    0.1037 N   0  0  0  0  0  0  0  0  0  0  0  0
    3.6846    0.9528    0.1116 C   0  0  0  0  0  0  0  0  0  0  0  0
    2.3556    0.2273    0.3324 C   0  0  0  0  0  0  0  0  0  0  0  0
   -1.2834    0.7853   -0.5578 C   0  0  1  0  0  0  0  0  0  0  0  0
    4.8663    0.2491    0.7881 C   0  0  1  0  0  0  0  0  0  0  0  0
    1.1809    0.9707   -0.2805 C   0  0  0  0  0  0  0  0  0  0  0  0
   -1.5867    0.3012   -1.9779 C   0  0  0  0  0  0  0  0  0  0  0  0
   -2.3722    0.4241    0.4507 C   0  0  0  0  0  0  0  0  0  0  0  0
    5.0800   -1.1415    0.2183 C   0  0  0  0  0  0  0  0  0  0  0  0
   -4.7985    0.7329    0.8876 C   0  0  0  0  0  0  0  0  0  0  0  0
   -5.5621   -0.4936    0.4591 C   0  0  0  0  0  0  0  0  0  0  0  0
  1 16  1  0
  2 15  2  0
  3 17  2  0
  4 18  1  0
  5 18  2  0
  6 20  1  0
  7 20  2  0
  8 13  1  0
  8 15  1  0
 14  9  1  6
 10 17  1  0
 10 19  1  0
 11 12  1  0
 11 14  1  0
 12 15  1  0
 13 16  1  6
 13 17  1  0
 14 18  1  0
 19 20  1  0
M  END
$$$$
