
     RDKit          3D

 52 55  0  0  0  0  0  0  0  0999 V2000
   -0.8592    5.0927   -1.1250 C   0  0  0  0  0  0  0  0  0  0  0  0
   -0.4540    3.6356   -1.3860 C   0  0  0  0  0  0  0  0  0  0  0  0
    0.5457    3.1849   -0.3242 C   0  0  0  0  0  0  0  0  0  0  0  0
   -1.7320    2.7364   -1.4481 C   0  0  0  0  0  0  0  0  0  0  0  0
   -2.8671    3.2110   -1.4307 O   0  0  0  0  0  0  0  0  0  0  0  0
   -1.5117    1.3883   -1.6699 N   0  0  0  0  0  0  0  0  0  0  0  0
   -2.6112    0.4940   -2.0645 C   0  0  1  0  0  0  0  0  0  0  0  0
   -2.4191   -0.0314   -3.4994 C   0  0  0  0  0  0  0  0  0  0  0  0
   -1.3476   -1.0623   -3.6463 C   0  0  0  0  0  0  0  0  0  0  0  0
   -1.3960   -2.4357   -3.5212 C   0  0  0  0  0  0  0  0  0  0  0  0
   -0.1684   -2.9927   -3.7474 N   0  0  0  0  0  0  0  0  0  0  0  0
    0.6061   -1.9890   -4.0854 C   0  0  0  0  0  0  0  0  0  0  0  0
   -0.0522   -0.7921   -4.0087 N   0  0  0  0  0  0  0  0  0  0  0  0
   -2.9483   -0.6421   -1.0739 C   0  0  0  0  0  0  0  0  0  0  0  0
   -3.5937   -1.6402   -1.3957 O   0  0  0  0  0  0  0  0  0  0  0  0
   -2.5920   -0.4138    0.2329 N   0  0  0  0  0  0  0  0  0  0  0  0
   -2.8454   -1.4064    1.2803 C   0  0  2  0  0  0  0  0  0  0  0  0
   -3.2273   -0.7712    2.6299 C   0  0  0  0  0  0  0  0  0  0  0  0
   -2.3493    0.3554    3.1272 C   0  0  0  0  0  0  0  0  0  0  0  0
   -2.5462    1.6648    2.6614 C   0  0  0  0  0  0  0  0  0  0  0  0
   -1.7528    2.7282    3.1194 C   0  0  0  0  0  0  0  0  0  0  0  0
   -1.9512    4.0383    2.6558 C   0  0  0  0  0  0  0  0  0  0  0  0
   -1.1486    5.0847    3.1121 C   0  0  0  0  0  0  0  0  0  0  0  0
   -0.1412    4.8349    4.0392 C   0  0  0  0  0  0  0  0  0  0  0  0
    0.0634    3.5387    4.5155 C   0  0  0  0  0  0  0  0  0  0  0  0
   -0.7356    2.4751    4.0661 C   0  0  0  0  0  0  0  0  0  0  0  0
   -0.5507    1.1673    4.5391 C   0  0  0  0  0  0  0  0  0  0  0  0
   -1.3508    0.1196    4.0763 C   0  0  0  0  0  0  0  0  0  0  0  0
   -1.6587   -2.3918    1.3749 C   0  0  0  0  0  0  0  0  0  0  0  0
   -0.9898   -2.5506    2.3920 O   0  0  0  0  0  0  0  0  0  0  0  0
   -1.4257   -3.1037    0.2083 N   0  0  0  0  0  0  0  0  0  0  0  0
   -0.4333   -4.1902    0.1271 C   0  0  2  0  0  0  0  0  0  0  0  0
   -0.6581   -5.3430    1.1158 C   0  0  0  0  0  0  0  0  0  0  0  0
   -2.0253   -5.9748    0.9770 C   0  0  0  0  0  0  0  0  0  0  0  0
   -3.0097   -5.7482    1.9489 C   0  0  0  0  0  0  0  0  0  0  0  0
   -4.2804   -6.3080    1.8122 C   0  0  0  0  0  0  0  0  0  0  0  0
   -4.5785   -7.0993    0.7046 C   0  0  0  0  0  0  0  0  0  0  0  0
   -3.6059   -7.3339   -0.2657 C   0  0  0  0  0  0  0  0  0  0  0  0
   -2.3340   -6.7755   -0.1310 C   0  0  0  0  0  0  0  0  0  0  0  0
    0.9649   -3.5599    0.2809 C   0  0  0  0  0  0  0  0  0  0  0  0
    1.7895   -3.8860    1.1294 O   0  0  0  0  0  0  0  0  0  0  0  0
    1.2052   -2.5587   -0.6477 N   0  0  0  0  0  0  0  0  0  0  0  0
    2.1154   -1.4739   -0.3066 C   0  0  1  0  0  0  0  0  0  0  0  0
    2.6222   -0.7781   -1.5705 C   0  0  0  0  0  0  0  0  0  0  0  0
    3.7119    0.2518   -1.2803 C   0  0  0  0  0  0  0  0  0  0  0  0
    4.2930    0.9036   -2.5412 C   0  0  0  0  0  0  0  0  0  0  0  0
    3.3785    1.9183   -3.2353 C   0  0  0  0  0  0  0  0  0  0  0  0
    2.3371    1.3077   -4.0764 N   0  0  0  0  0  0  0  0  0  0  0  0
    1.2276   -0.5242    0.5160 C   0  0  0  0  0  0  0  0  0  0  0  0
    0.2947    0.1197    0.0328 O   0  0  0  0  0  0  0  0  0  0  0  0
    1.4464   -0.5404    1.8627 N   0  0  0  0  0  0  0  0  0  0  0  0
    0.2038    3.5840   -2.7179 N   0  0  0  0  0  0  0  0  0  0  0  0
  1  2  1  0
  2  3  1  0
  2  4  1  0
  4  5  2  0
  4  6  1  0
  6  7  1  0
  7  8  1  6
  8  9  1  0
  9 10  2  0
 10 11  1  0
 11 12  2  0
 12 13  1  0
  7 14  1  0
 14 15  2  0
 14 16  1  0
 16 17  1  0
 17 18  1  1
 18 19  1  0
 19 20  2  0
 20 21  1  0
 21 22  2  0
 22 23  1  0
 23 24  2  0
 24 25  1  0
 25 26  2  0
 26 27  1  0
 27 28  2  0
 17 29  1  0
 29 30  2  0
 29 31  1  0
 31 32  1  0
 32 33  1  1
 33 34  1  0
 34 35  2  0
 35 36  1  0
 36 37  2  0
 37 38  1  0
 38 39  2  0
 32 40  1  0
 40 41  2  0
 40 42  1  0
 42 43  1  0
 43 44  1  6
 44 45  1  0
 45 46  1  0
 46 47  1  0
 47 48  1  0
 43 49  1  0
 49 50  2  0
 49 51  1  0
  2 52  1  0
 13  9  1  0
 28 19  1  0
 26 21  1  0
 39 34  1  0
M  END
$$$$
