125672
     RDKit          3D

 24 24  0  0  1  0  0  0  0  0999 V2000
   -0.6264   -0.0344   -1.9540 O   0  0  0  0  0  0  0  0  0  0  0  0
    0.8734   -0.0666    1.3012 O   0  0  0  0  0  0  0  0  0  0  0  0
    5.3001    0.8224    0.0045 O   0  0  0  0  0  0  0  0  0  0  0  0
    5.9071   -1.0939    1.0302 O   0  0  0  0  0  0  0  0  0  0  0  0
   -0.5794    1.5433   -0.2614 N   0  0  0  0  0  0  0  0  0  0  0  0
    2.7488    0.2807   -0.0334 N   0  0  0  0  0  0  0  0  0  0  0  0
   -3.1457    0.5247   -2.5276 N   0  0  0  0  0  0  0  0  0  0  0  0
   -7.4960   -2.3803    1.5867 N   0  0  0  0  0  0  0  0  0  0  0  0
    0.8641    1.7410   -0.2580 C   0  0  1  0  0  0  0  0  0  0  0  0
    1.0777    3.0225    0.5393 C   0  0  0  0  0  0  0  0  0  0  0  0
   -0.1048    3.0410    1.5048 C   0  0  0  0  0  0  0  0  0  0  0  0
   -1.2367    2.4434    0.6828 C   0  0  0  0  0  0  0  0  0  0  0  0
   -1.2153    0.7130   -1.1713 C   0  0  0  0  0  0  0  0  0  0  0  0
    1.4712    0.5527    0.4251 C   0  0  0  0  0  0  0  0  0  0  0  0
   -2.7223    0.7597   -1.1506 C   0  0  2  0  0  0  0  0  0  0  0  0
   -3.3046   -0.3008   -0.2108 C   0  0  0  0  0  0  0  0  0  0  0  0
    3.5595   -0.7999    0.4799 C   0  0  1  0  0  0  0  0  0  0  0  0
    3.2755   -2.0986   -0.3050 C   0  0  0  0  0  0  0  0  0  0  0  0
   -4.8383   -0.2741   -0.1931 C   0  0  0  0  0  0  0  0  0  0  0  0
   -5.4543   -1.3404    0.7190 C   0  0  0  0  0  0  0  0  0  0  0  0
    3.9381   -3.3202    0.3377 C   0  0  0  0  0  0  0  0  0  0  0  0
    3.6591   -2.0052   -1.7851 C   0  0  0  0  0  0  0  0  0  0  0  0
    5.0316   -0.4001    0.5254 C   0  0  0  0  0  0  0  0  0  0  0  0
   -6.9827   -1.3300    0.7137 C   0  0  0  0  0  0  0  0  0  0  0  0
  1 13  2  0
  2 14  2  0
  3 23  1  0
  4 23  2  0
  5  9  1  0
  5 12  1  0
  5 13  1  0
  6 14  1  0
 17  6  1  6
 15  7  1  6
  8 24  1  0
  9 10  1  0
  9 14  1  1
 10 11  1  0
 11 12  1  0
 13 15  1  0
 15 16  1  0
 16 19  1  0
 17 18  1  0
 17 23  1  0
 18 21  1  0
 18 22  1  0
 19 20  1  0
 20 24  1  0
M  END
$$$$
