
     RDKit          3D

153158  0  0  0  0  0  0  0  0999 V2000
   -6.2490    4.5513   -0.5239 C   0  0  0  0  0  0  0  0  0  0  0  0
   -4.8666    3.9154   -0.5019 C   0  0  0  0  0  0  0  0  0  0  0  0
   -4.8720    2.3901   -0.2667 C   0  0  2  0  0  0  0  0  0  0  0  0
   -5.4745    2.0603    1.1054 C   0  0  0  0  0  0  0  0  0  0  0  0
   -3.4307    1.8352   -0.4412 C   0  0  1  0  0  0  0  0  0  0  0  0
   -3.3565    0.3555   -0.0118 C   0  0  0  0  0  0  0  0  0  0  0  0
   -3.7655   -0.5565   -0.7270 O   0  0  0  0  0  0  0  0  0  0  0  0
   -2.8556    0.1700    1.2572 N   0  0  0  0  0  0  0  0  0  0  0  0
   -3.0320   -1.0635    2.0341 C   0  0  1  0  0  0  0  0  0  0  0  0
   -2.4268   -2.3350    1.4133 C   0  0  0  0  0  0  0  0  0  0  0  0
   -0.9285   -2.5049    1.3139 C   0  0  0  0  0  0  0  0  0  0  0  0
   -0.4429   -3.7739    0.9532 C   0  0  0  0  0  0  0  0  0  0  0  0
    0.9229   -4.0074    0.7976 C   0  0  0  0  0  0  0  0  0  0  0  0
    1.8299   -2.9747    1.0067 C   0  0  0  0  0  0  0  0  0  0  0  0
    1.3661   -1.7150    1.3648 C   0  0  0  0  0  0  0  0  0  0  0  0
   -0.0030   -1.4771    1.5200 C   0  0  0  0  0  0  0  0  0  0  0  0
   -2.5526   -0.7590    3.4718 C   0  0  0  0  0  0  0  0  0  0  0  0
   -2.1967    0.3736    3.8050 O   0  0  0  0  0  0  0  0  0  0  0  0
   -2.5875   -1.7899    4.3888 N   0  0  0  0  0  0  0  0  0  0  0  0
   -2.1058   -1.5023    5.7445 C   0  0  1  0  0  0  0  0  0  0  0  0
   -2.4858   -2.5757    6.7803 C   0  0  0  0  0  0  0  0  0  0  0  0
   -2.3319   -4.0121    6.3297 C   0  0  0  0  0  0  0  0  0  0  0  0
   -3.4554   -4.7489    5.9251 C   0  0  0  0  0  0  0  0  0  0  0  0
   -3.3195   -6.0738    5.5054 C   0  0  0  0  0  0  0  0  0  0  0  0
   -2.0632   -6.6645    5.4823 C   0  0  0  0  0  0  0  0  0  0  0  0
   -0.9369   -5.9505    5.8707 C   0  0  0  0  0  0  0  0  0  0  0  0
   -1.0725   -4.6281    6.3003 C   0  0  0  0  0  0  0  0  0  0  0  0
   -1.9734   -7.9618    5.0722 O   0  0  0  0  0  0  0  0  0  0  0  0
   -0.5752   -1.2919    5.7009 C   0  0  0  0  0  0  0  0  0  0  0  0
    0.1427   -2.0196    5.0110 O   0  0  0  0  0  0  0  0  0  0  0  0
   -0.0418   -0.2626    6.4508 N   0  0  0  0  0  0  0  0  0  0  0  0
    1.4038   -0.0934    6.5219 C   0  0  0  0  0  0  0  0  0  0  0  0
    1.6217    1.1184    7.4088 C   0  0  0  0  0  0  0  0  0  0  0  0
    0.4254    1.0572    8.3491 C   0  0  0  0  0  0  0  0  0  0  0  0
   -0.7171    0.5966    7.4336 C   0  0  1  0  0  0  0  0  0  0  0  0
   -1.4105    1.8494    6.8510 C   0  0  0  0  0  0  0  0  0  0  0  0
   -2.1818    2.5177    7.5356 O   0  0  0  0  0  0  0  0  0  0  0  0
   -1.0138    2.2234    5.5843 N   0  0  0  0  0  0  0  0  0  0  0  0
   -1.5243    3.4583    4.9849 C   0  0  1  0  0  0  0  0  0  0  0  0
   -0.7557    4.6653    5.5603 C   0  0  0  0  0  0  0  0  0  0  0  0
   -1.2802    6.0237    5.0763 C   0  0  0  0  0  0  0  0  0  0  0  0
   -0.1951    7.1042    5.0470 C   0  0  0  0  0  0  0  0  0  0  0  0
    0.5195    7.2183    6.3080 N   0  0  0  0  0  0  0  0  0  0  0  0
   -0.0284    7.7987    7.3981 C   0  0  0  0  0  0  0  0  0  0  0  0
   -1.1088    8.4811    7.4051 N   0  0  0  0  0  0  0  0  0  0  0  0
    0.7298    7.5799    8.4931 N   0  0  0  0  0  0  0  0  0  0  0  0
   -1.3657    3.3763    3.4449 C   0  0  0  0  0  0  0  0  0  0  0  0
   -2.3228    3.2211    2.6888 O   0  0  0  0  0  0  0  0  0  0  0  0
   -0.0620    3.4934    3.0014 N   0  0  0  0  0  0  0  0  0  0  0  0
    0.2879    3.4020    1.5808 C   0  0  1  0  0  0  0  0  0  0  0  0
    0.1752    4.7483    0.8340 C   0  0  0  0  0  0  0  0  0  0  0  0
   -1.2428    5.2739    0.6188 C   0  0  0  0  0  0  0  0  0  0  0  0
   -1.2264    6.5444   -0.2394 C   0  0  0  0  0  0  0  0  0  0  0  0
   -2.6177    7.0681   -0.5957 C   0  0  0  0  0  0  0  0  0  0  0  0
   -3.3886    7.4514    0.5818 N   0  0  0  0  0  0  0  0  0  0  0  0
    1.7628    2.9538    1.5354 C   0  0  0  0  0  0  0  0  0  0  0  0
    2.1406    1.9035    1.0242 O   0  0  0  0  0  0  0  0  0  0  0  0
    2.6211    3.8614    2.1284 N   0  0  0  0  0  0  0  0  0  0  0  0
    4.0070    3.5408    2.4337 C   0  0  1  0  0  0  0  0  0  0  0  0
    4.8977    4.7882    2.2710 C   0  0  0  0  0  0  0  0  0  0  0  0
    5.2174    5.2291    0.8274 C   0  0  0  0  0  0  0  0  0  0  0  0
    6.0827    4.2067    0.0905 C   0  0  0  0  0  0  0  0  0  0  0  0
    3.9808    5.5727   -0.0035 C   0  0  0  0  0  0  0  0  0  0  0  0
    4.0183    3.0511    3.9048 C   0  0  0  0  0  0  0  0  0  0  0  0
    3.0155    3.0916    4.6184 O   0  0  0  0  0  0  0  0  0  0  0  0
    5.2376    2.5926    4.3459 N   0  0  0  0  0  0  0  0  0  0  0  0
    5.4696    2.1107    5.7073 C   0  0  1  0  0  0  0  0  0  0  0  0
    5.3987    0.5819    5.7791 C   0  0  0  0  0  0  0  0  0  0  0  0
    6.4352   -0.1316    4.8953 C   0  0  0  0  0  0  0  0  0  0  0  0
    6.3987   -1.6597    5.0030 C   0  0  0  0  0  0  0  0  0  0  0  0
    5.1807   -2.2041    4.4272 N   0  0  0  0  0  0  0  0  0  0  0  0
    4.0130   -2.3337    5.1040 C   0  0  0  0  0  0  0  0  0  0  0  0
    3.8543   -2.4946    6.3650 N   0  0  0  0  0  0  0  0  0  0  0  0
    2.9562   -2.2371    4.2784 N   0  0  0  0  0  0  0  0  0  0  0  0
    6.8239    2.6369    6.1827 C   0  0  0  0  0  0  0  0  0  0  0  0
    7.7044    3.0938    5.4662 O   0  0  0  0  0  0  0  0  0  0  0  0
    7.0044    2.5295    7.5128 O   0  0  0  0  0  0  0  0  0  0  0  0
   -3.0031    1.9203   -1.8415 N   0  0  0  0  0  0  0  0  0  0  0  0
   -1.6967    2.1909   -2.1761 C   0  0  0  0  0  0  0  0  0  0  0  0
   -0.8584    2.5009   -1.3295 O   0  0  0  0  0  0  0  0  0  0  0  0
   -1.3818    2.2834   -3.6864 C   0  0  2  0  0  0  0  0  0  0  0  0
   -1.3125    3.7838   -4.0292 C   0  0  0  0  0  0  0  0  0  0  0  0
   -0.8071    4.0744   -5.4219 C   0  0  0  0  0  0  0  0  0  0  0  0
   -1.6837    4.5061   -6.4257 C   0  0  0  0  0  0  0  0  0  0  0  0
   -1.2116    4.7440   -7.7160 C   0  0  0  0  0  0  0  0  0  0  0  0
    0.1314    4.5521   -8.0055 C   0  0  0  0  0  0  0  0  0  0  0  0
    1.0186    4.1256   -7.0236 C   0  0  0  0  0  0  0  0  0  0  0  0
    0.5475    3.8888   -5.7317 C   0  0  0  0  0  0  0  0  0  0  0  0
    0.5520    4.7994   -9.2806 O   0  0  0  0  0  0  0  0  0  0  0  0
   -2.3459    1.5763   -4.5401 N   0  0  0  0  0  0  0  0  0  0  0  0
   -1.9263    0.9277   -5.6919 C   0  0  0  0  0  0  0  0  0  0  0  0
   -0.7521    0.7172   -5.9732 O   0  0  0  0  0  0  0  0  0  0  0  0
   -3.0549    0.5301   -6.6464 C   0  0  0  0  0  0  0  0  0  0  0  0
   -4.1178   -0.1081   -5.8995 N   0  0  0  0  0  0  0  0  0  0  0  0
   -5.4564    0.1090   -6.1388 C   0  0  0  0  0  0  0  0  0  0  0  0
   -5.8837    0.9235   -6.9507 O   0  0  0  0  0  0  0  0  0  0  0  0
   -6.3675   -0.6503   -5.1523 C   0  0  2  0  0  0  0  0  0  0  0  0
   -6.3770    0.0564   -3.7849 C   0  0  0  0  0  0  0  0  0  0  0  0
   -6.8717    1.5056   -3.8567 C   0  0  0  0  0  0  0  0  0  0  0  0
   -5.4994    2.6860   -4.1229 S   0  0  0  0  0  0  0  0  0  0  0  0
   -6.4714    4.1332   -4.6120 C   0  0  0  0  0  0  0  0  0  0  0  0
   -5.8475   -2.0255   -5.0910 N   0  0  0  0  0  0  0  0  0  0  0  0
   -6.4199   -3.0360   -4.3473 C   0  0  0  0  0  0  0  0  0  0  0  0
   -7.2783   -2.8288   -3.4944 O   0  0  0  0  0  0  0  0  0  0  0  0
   -5.9509   -4.4693   -4.7508 C   0  0  2  0  0  0  0  0  0  0  0  0
   -6.5978   -5.5108   -3.8193 C   0  0  0  0  0  0  0  0  0  0  0  0
   -6.4220   -6.9619   -4.2693 C   0  0  0  0  0  0  0  0  0  0  0  0
   -7.2384   -7.2931   -5.4900 C   0  0  0  0  0  0  0  0  0  0  0  0
   -7.8702   -6.5238   -6.1924 O   0  0  0  0  0  0  0  0  0  0  0  0
   -7.2080   -8.6130   -5.7654 O   0  0  0  0  0  0  0  0  0  0  0  0
   -4.4840   -4.5934   -4.7536 N   0  0  0  0  0  0  0  0  0  0  0  0
   -3.7253   -4.1726   -5.8252 C   0  0  0  0  0  0  0  0  0  0  0  0
   -4.1619   -3.3810   -6.6610 O   0  0  0  0  0  0  0  0  0  0  0  0
   -2.2608   -4.6542   -5.8565 C   0  0  2  0  0  0  0  0  0  0  0  0
   -2.1002   -6.1841   -5.8860 C   0  0  0  0  0  0  0  0  0  0  0  0
   -2.2225   -6.7510   -7.3040 C   0  0  0  0  0  0  0  0  0  0  0  0
   -3.6507   -6.7865   -7.8005 C   0  0  0  0  0  0  0  0  0  0  0  0
   -4.6279   -6.8082   -7.0642 O   0  0  0  0  0  0  0  0  0  0  0  0
   -3.7831   -6.8419   -9.1563 N   0  0  0  0  0  0  0  0  0  0  0  0
   -1.5507   -4.0543   -4.7276 N   0  0  0  0  0  0  0  0  0  0  0  0
   -0.1747   -3.9091   -4.7832 C   0  0  0  0  0  0  0  0  0  0  0  0
    0.4859   -4.3442   -5.7281 O   0  0  0  0  0  0  0  0  0  0  0  0
    0.4441   -3.0729   -3.6415 C   0  0  2  0  0  0  0  0  0  0  0  0
    0.3310   -1.6073   -4.0869 C   0  0  0  0  0  0  0  0  0  0  0  0
    1.0652   -0.6379   -3.2180 C   0  0  0  0  0  0  0  0  0  0  0  0
    0.8005   -0.3775   -1.8912 C   0  0  0  0  0  0  0  0  0  0  0  0
    1.6700    0.5824   -1.4510 N   0  0  0  0  0  0  0  0  0  0  0  0
    2.4897    0.9813   -2.4806 C   0  0  0  0  0  0  0  0  0  0  0  0
    3.4861    1.9635   -2.5046 C   0  0  0  0  0  0  0  0  0  0  0  0
    4.1554    2.1810   -3.7130 C   0  0  0  0  0  0  0  0  0  0  0  0
    3.8369    1.4403   -4.8484 C   0  0  0  0  0  0  0  0  0  0  0  0
    2.8332    0.4633   -4.8061 C   0  0  0  0  0  0  0  0  0  0  0  0
    2.1399    0.2280   -3.6004 C   0  0  0  0  0  0  0  0  0  0  0  0
    1.8295   -3.4857   -3.4456 N   0  0  0  0  0  0  0  0  0  0  0  0
    2.1309   -4.7289   -2.9286 C   0  0  0  0  0  0  0  0  0  0  0  0
    1.2701   -5.5596   -2.6390 O   0  0  0  0  0  0  0  0  0  0  0  0
    3.6494   -4.9857   -2.7842 C   0  0  2  0  0  0  0  0  0  0  0  0
    4.3384   -4.8453   -4.1499 C   0  0  0  0  0  0  0  0  0  0  0  0
    5.8633   -5.0060   -4.1136 C   0  0  0  0  0  0  0  0  0  0  0  0
    6.5793   -4.1079   -3.1034 C   0  0  0  0  0  0  0  0  0  0  0  0
    6.1844   -2.7179   -3.2900 N   0  0  0  0  0  0  0  0  0  0  0  0
    6.5788   -1.7757   -2.4005 C   0  0  0  0  0  0  0  0  0  0  0  0
    7.2100   -2.0127   -1.3094 N   0  0  0  0  0  0  0  0  0  0  0  0
    6.2240   -0.5385   -2.8003 N   0  0  0  0  0  0  0  0  0  0  0  0
    3.8603   -6.3262   -2.2582 N   0  0  0  0  0  0  0  0  0  0  0  0
    3.9552   -6.5558   -0.9034 C   0  0  0  0  0  0  0  0  0  0  0  0
    4.0954   -5.6836   -0.0516 O   0  0  0  0  0  0  0  0  0  0  0  0
    3.9341   -8.0542   -0.5486 C   0  0  2  0  0  0  0  0  0  0  0  0
    5.2949   -8.7056   -0.8188 C   0  0  0  0  0  0  0  0  0  0  0  0
    6.4141   -8.0462   -0.0118 C   0  0  0  0  0  0  0  0  0  0  0  0
    7.9611   -8.9905   -0.2091 S   0  0  0  0  0  0  0  0  0  0  0  0
    9.0463   -7.9370    0.7824 C   0  0  0  0  0  0  0  0  0  0  0  0
    2.9011   -8.7239   -1.3742 N   0  0  0  0  0  0  0  0  0  0  0  0
  1  2  1  0
  2  3  1  0
  3  4  1  1
  3  5  1  0
  5  6  1  0
  6  7  2  0
  6  8  1  0
  8  9  1  0
  9 10  1  6
 10 11  1  0
 11 12  2  0
 12 13  1  0
 13 14  2  0
 14 15  1  0
 15 16  2  0
  9 17  1  0
 17 18  2  0
 17 19  1  0
 19 20  1  0
 20 21  1  1
 21 22  1  0
 22 23  1  0
 23 24  2  0
 24 25  1  0
 25 26  2  0
 26 27  1  0
 25 28  1  0
 20 29  1  0
 29 30  2  0
 29 31  1  0
 31 32  1  0
 32 33  1  0
 33 34  1  0
 34 35  1  0
 35 36  1  6
 36 37  2  0
 36 38  1  0
 38 39  1  0
 39 40  1  1
 40 41  1  0
 41 42  1  0
 42 43  1  0
 43 44  1  0
 44 45  2  0
 44 46  1  0
 39 47  1  0
 47 48  2  0
 47 49  1  0
 49 50  1  0
 50 51  1  1
 51 52  1  0
 52 53  1  0
 53 54  1  0
 54 55  1  0
 50 56  1  0
 56 57  2  0
 56 58  1  0
 58 59  1  0
 59 60  1  1
 60 61  1  0
 61 62  1  0
 61 63  1  0
 59 64  1  0
 64 65  2  0
 64 66  1  0
 66 67  1  0
 67 68  1  6
 68 69  1  0
 69 70  1  0
 70 71  1  0
 71 72  1  0
 72 73  2  0
 72 74  1  0
 67 75  1  0
 75 76  2  0
 75 77  1  0
  5 78  1  6
 78 79  1  0
 79 80  2  0
 79 81  1  0
 81 82  1  6
 82 83  1  0
 83 84  1  0
 84 85  2  0
 85 86  1  0
 86 87  2  0
 87 88  1  0
 86 89  1  0
 81 90  1  0
 90 91  1  0
 91 92  2  0
 91 93  1  0
 93 94  1  0
 94 95  1  0
 95 96  2  0
 95 97  1  0
 97 98  1  1
 98 99  1  0
 99100  1  0
100101  1  0
 97102  1  0
102103  1  0
103104  2  0
103105  1  0
105106  1  1
106107  1  0
107108  1  0
108109  2  0
108110  1  0
105111  1  0
111112  1  0
112113  2  0
112114  1  0
114115  1  1
115116  1  0
116117  1  0
117118  2  0
117119  1  0
114120  1  0
120121  1  0
121122  2  0
121123  1  0
123124  1  6
124125  1  0
125126  2  0
126127  1  0
127128  1  0
128129  2  0
129130  1  0
130131  2  0
131132  1  0
132133  2  0
123134  1  0
134135  1  0
135136  2  0
135137  1  0
137138  1  6
138139  1  0
139140  1  0
140141  1  0
141142  1  0
142143  2  0
142144  1  0
137145  1  0
145146  1  0
146147  2  0
146148  1  0
148149  1  0
149150  1  0
150151  1  0
151152  1  0
148153  1  6
 16 11  1  0
 27 22  2  0
 35 31  1  0
 88 83  2  0
133125  1  0
133128  1  0
M  END
$$$$
