5892
     RDKit          3D

 44 48  0  0  1  0  0  0  0  0999 V2000
    4.1022    1.3461   -1.6570 P   0  0  1  0  0  0  0  0  0  0  0  0
    4.3117   -1.6039   -1.5256 P   0  0  1  0  0  0  0  0  0  0  0  0
   -0.7288    2.7430   -1.8928 O   0  0  0  0  0  0  0  0  0  0  0  0
    1.0909   -3.1742    0.9241 O   0  0  0  0  0  0  0  0  0  0  0  0
    0.0153    4.3536    0.5872 O   0  0  0  0  0  0  0  0  0  0  0  0
   -1.3658    2.2485    1.6100 O   0  0  0  0  0  0  0  0  0  0  0  0
   -1.1896   -4.4845   -0.6107 O   0  0  0  0  0  0  0  0  0  0  0  0
   -2.3819   -2.3331    0.5436 O   0  0  0  0  0  0  0  0  0  0  0  0
    2.8391    2.2929   -1.3008 O   0  0  0  0  0  0  0  0  0  0  0  0
    3.1618   -2.5711   -0.8793 O   0  0  0  0  0  0  0  0  0  0  0  0
    3.6062   -0.1496   -1.2923 O   0  0  0  0  0  0  0  0  0  0  0  0
    4.1518    1.3345   -3.2741 O   0  0  0  0  0  0  0  0  0  0  0  0
    5.3926    1.7469   -1.0027 O   0  0  0  0  0  0  0  0  0  0  0  0
    5.5621   -1.6726   -0.6758 O   0  0  0  0  0  0  0  0  0  0  0  0
    4.3758   -1.8745   -3.0132 O   0  0  0  0  0  0  0  0  0  0  0  0
    2.5108    2.1281    3.8276 O   0  0  0  0  0  0  0  0  0  0  0  0
   -2.4582    1.2675   -1.2127 N   0  0  0  0  0  0  0  0  0  0  0  0
    0.0055   -1.6198    2.4410 N   0  0  0  0  0  0  0  0  0  0  0  0
   -3.0956   -0.6018   -2.2468 N   0  0  0  0  0  0  0  0  0  0  0  0
   -4.4842    1.7678    0.0305 N   0  0  0  0  0  0  0  0  0  0  0  0
   -6.2135    0.0961   -0.3832 N   0  0  0  0  0  0  0  0  0  0  0  0
   -5.8733   -1.7703   -1.8421 N   0  0  0  0  0  0  0  0  0  0  0  0
    3.1769    1.0049    1.9425 N   0  0  0  0  0  0  0  0  0  0  0  0
    0.4305    3.0553    0.1628 C   0  0  1  0  0  0  0  0  0  0  0  0
   -0.6997    2.0680    0.3771 C   0  0  2  0  0  0  0  0  0  0  0  0
    0.5768    3.0576   -1.3557 C   0  0  1  0  0  0  0  0  0  0  0  0
   -1.6026    2.3802   -0.8066 C   0  0  1  0  0  0  0  0  0  0  0  0
   -0.5469   -3.2240   -0.8013 C   0  0  1  0  0  0  0  0  0  0  0  0
   -0.9964   -2.2598    0.2782 C   0  0  2  0  0  0  0  0  0  0  0  0
    0.9401   -3.3797   -0.4993 C   0  0  1  0  0  0  0  0  0  0  0  0
   -0.1662   -2.7226    1.4619 C   0  0  1  0  0  0  0  0  0  0  0  0
    1.5664    2.0156   -1.8582 C   0  0  0  0  0  0  0  0  0  0  0  0
    1.8036   -2.3584   -1.2265 C   0  0  0  0  0  0  0  0  0  0  0  0
   -3.7428    1.0331   -0.8121 C   0  0  0  0  0  0  0  0  0  0  0  0
   -2.1146    0.2593   -2.0739 C   0  0  0  0  0  0  0  0  0  0  0  0
    1.0290   -0.7693    2.2840 C   0  0  0  0  0  0  0  0  0  0  0  0
   -0.8695   -1.5106    3.4501 C   0  0  0  0  0  0  0  0  0  0  0  0
   -4.1194   -0.1304   -1.4640 C   0  0  0  0  0  0  0  0  0  0  0  0
    1.2130    0.2711    3.1835 C   0  0  0  0  0  0  0  0  0  0  0  0
   -0.7347   -0.4895    4.3800 C   0  0  0  0  0  0  0  0  0  0  0  0
   -5.4080   -0.5967   -1.2242 C   0  0  0  0  0  0  0  0  0  0  0  0
    0.3193    0.4086    4.2413 C   0  0  0  0  0  0  0  0  0  0  0  0
   -5.7089    1.2187    0.1835 C   0  0  0  0  0  0  0  0  0  0  0  0
    2.3194    1.1989    3.0222 C   0  0  0  0  0  0  0  0  0  0  0  0
  1  9  1  0
  1 11  1  0
  1 12  1  6
  1 13  2  0
  2 10  1  0
  2 11  1  0
  2 14  1  1
  2 15  2  0
  3 26  1  0
  3 27  1  0
  4 30  1  0
  4 31  1  0
 24  5  1  6
 25  6  1  1
 28  7  1  1
 29  8  1  1
  9 32  1  0
 10 33  1  0
 16 44  2  0
 27 17  1  6
 17 34  1  0
 17 35  1  0
 31 18  1  1
 18 36  1  0
 18 37  2  0
 19 35  2  0
 19 38  1  0
 20 34  2  0
 20 43  1  0
 21 41  1  0
 21 43  2  0
 22 41  1  0
 23 44  1  0
 24 25  1  0
 24 26  1  0
 25 27  1  0
 26 32  1  1
 28 29  1  0
 28 30  1  0
 29 31  1  0
 30 33  1  6
 34 38  1  0
 36 39  2  0
 37 40  1  0
 38 41  2  0
 39 42  1  0
 39 44  1  0
 40 42  2  0
M  CHG  2  14  -1  18   1
M  END
$$$$
