
     RDKit          3D

 29 28  0  0  0  0  0  0  0  0999 V2000
   -2.1400   -3.5499   -0.7284 C   0  0  0  0  0  0  0  0  0  0  0  0
   -3.3700   -2.7352   -0.3195 C   0  0  0  0  0  0  0  0  0  0  0  0
   -3.6383   -1.5595   -1.2709 C   0  0  1  0  0  0  0  0  0  0  0  0
   -4.9683   -0.8642   -0.9410 C   0  0  0  0  0  0  0  0  0  0  0  0
   -6.0082   -1.4170   -0.6148 O   0  0  0  0  0  0  0  0  0  0  0  0
   -4.9560    0.4733   -1.1378 O   0  0  0  0  0  0  0  0  0  0  0  0
   -2.5231   -0.6201   -1.4035 N   0  0  0  0  0  0  0  0  0  0  0  0
   -1.9795    0.0522   -0.3340 C   0  0  0  0  0  0  0  0  0  0  0  0
   -2.3297   -0.1341    0.8315 O   0  0  0  0  0  0  0  0  0  0  0  0
   -0.9030    1.0977   -0.6985 C   0  0  2  0  0  0  0  0  0  0  0  0
    0.2686    0.4516   -1.4386 C   0  0  0  0  0  0  0  0  0  0  0  0
    0.1898    0.6581   -2.9240 C   0  0  0  0  0  0  0  0  0  0  0  0
    1.1387    0.8054   -3.6761 O   0  0  0  0  0  0  0  0  0  0  0  0
   -1.0554    0.5733   -3.4360 O   0  0  0  0  0  0  0  0  0  0  0  0
   -0.4692    1.6904    0.5705 N   0  0  0  0  0  0  0  0  0  0  0  0
    0.1354    2.9293    0.6115 C   0  0  0  0  0  0  0  0  0  0  0  0
    0.4353    3.5432   -0.4074 O   0  0  0  0  0  0  0  0  0  0  0  0
    0.3911    3.4470    2.0454 C   0  0  2  0  0  0  0  0  0  0  0  0
    1.0070    4.8531    2.0699 C   0  0  0  0  0  0  0  0  0  0  0  0
    2.4757    4.9258    1.6407 C   0  0  0  0  0  0  0  0  0  0  0  0
    2.9586    6.3360    1.4355 C   0  0  0  0  0  0  0  0  0  0  0  0
    3.8137    6.6855    0.6375 O   0  0  0  0  0  0  0  0  0  0  0  0
    2.4240    7.2319    2.2846 O   0  0  0  0  0  0  0  0  0  0  0  0
    1.2052    2.4742    2.8011 N   0  0  0  0  0  0  0  0  0  0  0  0
   -1.9022   -4.7175    0.2264 C   0  0  0  0  0  0  0  0  0  0  0  0
   -0.7138   -5.4541   -0.1903 N   0  0  0  0  0  0  0  0  0  0  0  0
   -0.8090   -6.4216   -1.0176 C   0  0  0  0  0  0  0  0  0  0  0  0
   -1.8861   -6.9393   -1.6477 N   0  0  0  0  0  0  0  0  0  0  0  0
    0.3038   -7.0851   -1.3986 N   0  0  0  0  0  0  0  0  0  0  0  0
  1  2  1  0
  3  2  1  1
  3  4  1  0
  4  5  2  0
  4  6  1  0
  3  7  1  0
  7  8  1  0
  8  9  2  0
  8 10  1  0
 10 11  1  1
 11 12  1  0
 12 13  2  0
 12 14  1  0
 10 15  1  0
 15 16  1  0
 16 17  2  0
 16 18  1  0
 18 19  1  0
 19 20  1  0
 20 21  1  0
 21 22  2  0
 21 23  1  0
 18 24  1  6
  1 25  1  0
 25 26  1  0
 26 27  2  3
 27 28  1  0
 27 29  1  0
M  END
$$$$
