
     RDKit          3D

 74 78  0  0  0  0  0  0  0  0999 V2000
    1.1098    5.9652    3.2796 C   0  0  0  0  0  0  0  0  0  0  0  0
    1.4385    6.6907    1.9828 C   0  0  0  0  0  0  0  0  0  0  0  0
    0.5497    6.2743    0.8075 C   0  0  0  0  0  0  0  0  0  0  0  0
    0.7488    4.8129    0.3941 C   0  0  0  0  0  0  0  0  0  0  0  0
   -0.0826    4.4289   -0.8379 C   0  0  1  0  0  0  0  0  0  0  0  0
    0.2338    2.9686   -1.2453 C   0  0  0  0  0  0  0  0  0  0  0  0
   -0.5327    2.0275   -1.0407 O   0  0  0  0  0  0  0  0  0  0  0  0
    1.4943    2.7823   -1.7906 N   0  0  0  0  0  0  0  0  0  0  0  0
    1.8511    1.4525   -2.3256 C   0  0  1  0  0  0  0  0  0  0  0  0
    3.1251    1.5473   -3.1585 C   0  0  0  0  0  0  0  0  0  0  0  0
    3.3364    0.3012   -3.9864 C   0  0  0  0  0  0  0  0  0  0  0  0
    4.2300   -0.4994   -3.7360 O   0  0  0  0  0  0  0  0  0  0  0  0
    2.4628    0.1645   -5.0459 N   0  0  0  0  0  0  0  0  0  0  0  0
    2.6348   -0.9259   -5.9847 C   0  0  0  0  0  0  0  0  0  0  0  0
    1.4408   -1.0875   -6.9223 C   0  0  0  0  0  0  0  0  0  0  0  0
    0.1001   -1.3657   -6.2322 C   0  0  0  0  0  0  0  0  0  0  0  0
    0.0949   -2.6488   -5.3950 C   0  0  0  0  0  0  0  0  0  0  0  0
   -1.2819   -2.9469   -4.7889 C   0  0  2  0  0  0  0  0  0  0  0  0
   -1.1346   -3.8550   -3.6510 N   0  0  0  0  0  0  0  0  0  0  0  0
   -2.0065   -3.8020   -2.5845 C   0  0  0  0  0  0  0  0  0  0  0  0
   -2.9167   -2.9770   -2.5158 O   0  0  0  0  0  0  0  0  0  0  0  0
   -1.7540   -4.8618   -1.4928 C   0  0  1  0  0  0  0  0  0  0  0  0
   -2.2054   -4.3164   -0.2121 N   0  0  0  0  0  0  0  0  0  0  0  0
   -1.3600   -3.4996    0.5062 C   0  0  0  0  0  0  0  0  0  0  0  0
   -0.1581   -3.4106    0.2472 O   0  0  0  0  0  0  0  0  0  0  0  0
   -1.9914   -2.7437    1.6932 C   0  0  1  0  0  0  0  0  0  0  0  0
   -0.9247   -1.9506    2.3006 N   0  0  0  0  0  0  0  0  0  0  0  0
   -0.9514   -1.4874    3.5939 C   0  0  0  0  0  0  0  0  0  0  0  0
   -1.7719   -1.8733    4.4209 O   0  0  0  0  0  0  0  0  0  0  0  0
    0.0571   -0.3436    3.8521 C   0  0  2  0  0  0  0  0  0  0  0  0
    1.2218   -0.4521    2.9501 N   0  0  0  0  0  0  0  0  0  0  0  0
    1.5517    0.5456    2.0574 C   0  0  0  0  0  0  0  0  0  0  0  0
    0.9514    1.6208    2.0056 O   0  0  0  0  0  0  0  0  0  0  0  0
    2.8013    0.2634    1.1972 C   0  0  1  0  0  0  0  0  0  0  0  0
    2.6679    1.0335   -0.0385 N   0  0  0  0  0  0  0  0  0  0  0  0
    2.0825    0.4677   -1.1563 C   0  0  0  0  0  0  0  0  0  0  0  0
    1.8877   -0.7388   -1.2622 O   0  0  0  0  0  0  0  0  0  0  0  0
    4.0296    0.6926    2.0145 C   0  0  0  0  0  0  0  0  0  0  0  0
    5.3485    0.4246    1.3663 C   0  0  0  0  0  0  0  0  0  0  0  0
    5.7295   -0.1837    0.1867 C   0  0  0  0  0  0  0  0  0  0  0  0
    7.0945   -0.1722    0.0496 N   0  0  0  0  0  0  0  0  0  0  0  0
    7.5504    0.4252    1.1231 C   0  0  0  0  0  0  0  0  0  0  0  0
    6.5346    0.8047    1.9504 N   0  0  0  0  0  0  0  0  0  0  0  0
    0.5034   -0.2927    5.3216 C   0  0  0  0  0  0  0  0  0  0  0  0
   -0.1774    0.8242    6.0809 C   0  0  0  0  0  0  0  0  0  0  0  0
    0.3621    2.1186    6.0724 C   0  0  0  0  0  0  0  0  0  0  0  0
   -0.2837    3.1581    6.7431 C   0  0  0  0  0  0  0  0  0  0  0  0
   -1.4760    2.9153    7.4222 C   0  0  0  0  0  0  0  0  0  0  0  0
   -2.0251    1.6342    7.4278 C   0  0  0  0  0  0  0  0  0  0  0  0
   -1.3810    0.5930    6.7581 C   0  0  0  0  0  0  0  0  0  0  0  0
   -3.1709   -1.8376    1.3041 C   0  0  0  0  0  0  0  0  0  0  0  0
   -2.7891   -0.7187    0.3163 C   0  0  0  0  0  0  0  0  0  0  0  0
   -3.7412    0.4785    0.3713 C   0  0  0  0  0  0  0  0  0  0  0  0
   -3.7450    1.0625    1.7113 N   0  0  0  0  0  0  0  0  0  0  0  0
   -2.8157    1.8589    2.0731 C   0  0  0  0  0  0  0  0  0  0  0  0
   -2.7971    2.3363    3.3336 N   0  0  0  0  0  0  0  0  0  0  0  0
   -1.7571    2.3405    1.3856 N   0  0  0  0  0  0  0  0  0  0  0  0
   -2.4133   -6.2020   -1.8478 C   0  0  0  0  0  0  0  0  0  0  0  0
   -3.9121   -6.1701   -1.8896 C   0  0  0  0  0  0  0  0  0  0  0  0
   -4.6920   -5.9332   -3.0046 C   0  0  0  0  0  0  0  0  0  0  0  0
   -6.0061   -5.9581   -2.6242 N   0  0  0  0  0  0  0  0  0  0  0  0
   -6.1076   -6.2252   -1.2793 C   0  0  0  0  0  0  0  0  0  0  0  0
   -7.2413   -6.3433   -0.4664 C   0  0  0  0  0  0  0  0  0  0  0  0
   -7.0413   -6.6224    0.8885 C   0  0  0  0  0  0  0  0  0  0  0  0
   -5.7583   -6.7786    1.4067 C   0  0  0  0  0  0  0  0  0  0  0  0
   -4.6362   -6.6583    0.5794 C   0  0  0  0  0  0  0  0  0  0  0  0
   -4.8096   -6.3738   -0.7913 C   0  0  0  0  0  0  0  0  0  0  0  0
   -2.1981   -3.6299   -5.8051 C   0  0  0  0  0  0  0  0  0  0  0  0
   -2.3286   -4.8351   -5.9694 O   0  0  0  0  0  0  0  0  0  0  0  0
   -2.8717   -2.7628   -6.5871 O   0  0  0  0  0  0  0  0  0  0  0  0
   -1.5098    4.5261   -0.5638 N   0  0  0  0  0  0  0  0  0  0  0  0
   -2.3919    4.7243   -1.6014 C   0  0  0  0  0  0  0  0  0  0  0  0
   -2.0381    5.0178   -2.7396 O   0  0  0  0  0  0  0  0  0  0  0  0
   -3.8366    4.5368   -1.2253 C   0  0  0  0  0  0  0  0  0  0  0  0
  1  2  1  0
  2  3  1  0
  3  4  1  0
  5  4  1  1
  5  6  1  0
  6  7  2  0
  6  8  1  0
  9  8  1  1
  9 10  1  0
 10 11  1  0
 11 12  2  0
 11 13  1  0
 13 14  1  0
 14 15  1  0
 15 16  1  0
 16 17  1  0
 17 18  1  0
 18 19  1  0
 19 20  1  0
 20 21  2  0
 20 22  1  0
 22 23  1  0
 23 24  1  0
 24 25  2  0
 24 26  1  0
 26 27  1  0
 27 28  1  0
 28 29  2  0
 28 30  1  0
 30 31  1  0
 31 32  1  0
 32 33  2  0
 32 34  1  0
 34 35  1  0
 35 36  1  0
 36 37  2  0
 34 38  1  1
 38 39  1  0
 39 40  2  0
 40 41  1  0
 41 42  2  0
 42 43  1  0
 30 44  1  1
 44 45  1  0
 45 46  2  0
 46 47  1  0
 47 48  2  0
 48 49  1  0
 49 50  2  0
 26 51  1  6
 51 52  1  0
 52 53  1  0
 53 54  1  0
 54 55  2  3
 55 56  1  0
 55 57  1  0
 22 58  1  6
 58 59  1  0
 59 60  2  0
 60 61  1  0
 61 62  1  0
 62 63  2  0
 63 64  1  0
 64 65  2  0
 65 66  1  0
 66 67  2  0
 18 68  1  6
 68 69  2  0
 68 70  1  0
  5 71  1  0
 71 72  1  0
 72 73  2  0
 72 74  1  0
 36  9  1  0
 43 39  1  0
 50 45  1  0
 67 59  1  0
 67 62  1  0
M  END
$$$$
