
     RDKit          3D

 53 55  0  0  0  0  0  0  0  0999 V2000
   -4.7208    7.1304    2.8355 C   0  0  0  0  0  0  0  0  0  0  0  0
   -3.3446    6.4754    2.7754 C   0  0  2  0  0  0  0  0  0  0  0  0
   -3.3986    4.9535    3.0430 C   0  0  1  0  0  0  0  0  0  0  0  0
   -3.8725    4.1708    1.8001 C   0  0  0  0  0  0  0  0  0  0  0  0
   -4.5090    4.6701    0.8769 O   0  0  0  0  0  0  0  0  0  0  0  0
   -3.5548    2.8343    1.8489 N   0  0  0  0  0  0  0  0  0  0  0  0
   -3.8569    1.8870    0.7858 C   0  0  1  0  0  0  0  0  0  0  0  0
   -2.9816    2.0991   -0.4634 C   0  0  0  0  0  0  0  0  0  0  0  0
   -1.5162    1.6540   -0.3892 C   0  0  0  0  0  0  0  0  0  0  0  0
   -0.6559    2.4217    0.6139 C   0  0  0  0  0  0  0  0  0  0  0  0
    0.8144    2.0218    0.4916 C   0  0  0  0  0  0  0  0  0  0  0  0
    1.6341    2.7559    1.4532 N   0  0  0  0  0  0  0  0  0  0  0  0
   -3.7680    0.4556    1.3708 C   0  0  0  0  0  0  0  0  0  0  0  0
   -3.1085    0.2278    2.3887 O   0  0  0  0  0  0  0  0  0  0  0  0
   -4.4203   -0.5686    0.7085 N   0  0  0  0  0  0  0  0  0  0  0  0
   -5.4321   -0.4062   -0.3253 C   0  0  0  0  0  0  0  0  0  0  0  0
   -5.9162   -1.8167   -0.6160 C   0  0  0  0  0  0  0  0  0  0  0  0
   -5.7958   -2.4985    0.7411 C   0  0  0  0  0  0  0  0  0  0  0  0
   -4.5073   -1.9072    1.3235 C   0  0  1  0  0  0  0  0  0  0  0  0
   -3.3191   -2.8406    1.0027 C   0  0  0  0  0  0  0  0  0  0  0  0
   -3.1960   -3.9485    1.5232 O   0  0  0  0  0  0  0  0  0  0  0  0
   -2.4936   -2.4015   -0.0099 N   0  0  0  0  0  0  0  0  0  0  0  0
   -1.2694   -3.1223   -0.3487 C   0  0  1  0  0  0  0  0  0  0  0  0
   -0.9925   -3.0325   -1.8555 C   0  0  0  0  0  0  0  0  0  0  0  0
   -2.1684   -3.4265   -2.7585 C   0  0  0  0  0  0  0  0  0  0  0  0
   -2.7917   -4.7800   -2.4169 C   0  0  0  0  0  0  0  0  0  0  0  0
   -3.7424   -5.1187   -3.4717 N   0  0  0  0  0  0  0  0  0  0  0  0
   -4.6162   -6.0225   -3.2414 C   0  0  0  0  0  0  0  0  0  0  0  0
   -4.8325   -6.7666   -2.1351 N   0  0  0  0  0  0  0  0  0  0  0  0
   -5.5146   -6.3464   -4.1958 N   0  0  0  0  0  0  0  0  0  0  0  0
   -0.1037   -2.4768    0.4383 C   0  0  0  0  0  0  0  0  0  0  0  0
   -0.2310   -1.3598    0.9474 O   0  0  0  0  0  0  0  0  0  0  0  0
    1.1135   -3.1297    0.4699 N   0  0  0  0  0  0  0  0  0  0  0  0
    1.3456   -4.5424    0.2105 C   0  0  0  0  0  0  0  0  0  0  0  0
    2.4686   -4.9183    1.1637 C   0  0  0  0  0  0  0  0  0  0  0  0
    3.2899   -3.6409    1.2489 C   0  0  0  0  0  0  0  0  0  0  0  0
    2.2341   -2.5321    1.2168 C   0  0  1  0  0  0  0  0  0  0  0  0
    2.8292   -1.2761    0.5498 C   0  0  0  0  0  0  0  0  0  0  0  0
    3.5702   -0.4988    1.1509 O   0  0  0  0  0  0  0  0  0  0  0  0
    2.5906   -1.1718   -0.8057 N   0  0  0  0  0  0  0  0  0  0  0  0
    3.3210   -0.2132   -1.6098 C   0  0  0  0  0  0  0  0  0  0  0  0
    4.6075   -0.8787   -2.1151 C   0  0  0  0  0  0  0  0  0  0  0  0
    4.6034   -2.0721   -2.4400 O   0  0  0  0  0  0  0  0  0  0  0  0
    5.7413   -0.1053   -2.2358 N   0  0  0  0  0  0  0  0  0  0  0  0
    6.9765   -0.6846   -2.7294 C   0  0  0  0  0  0  0  0  0  0  0  0
    7.9400    0.4857   -2.8108 C   0  0  0  0  0  0  0  0  0  0  0  0
    7.4899    1.3714   -1.6543 C   0  0  0  0  0  0  0  0  0  0  0  0
    5.9625    1.2377   -1.6765 C   0  0  1  0  0  0  0  0  0  0  0  0
    5.2960    2.3177   -2.5365 C   0  0  0  0  0  0  0  0  0  0  0  0
    4.4162    2.1477   -3.3673 O   0  0  0  0  0  0  0  0  0  0  0  0
    5.7026    3.5675   -2.2356 O   0  0  0  0  0  0  0  0  0  0  0  0
   -2.0635    4.4370    3.4719 N   0  0  0  0  0  0  0  0  0  0  0  0
   -2.5141    7.0971    3.7748 O   0  0  0  0  0  0  0  0  0  0  0  0
  2  1  1  1
  2  3  1  0
  3  4  1  0
  4  5  2  0
  4  6  1  0
  6  7  1  0
  7  8  1  6
  8  9  1  0
  9 10  1  0
 10 11  1  0
 11 12  1  0
  7 13  1  0
 13 14  2  0
 13 15  1  0
 15 16  1  0
 16 17  1  0
 17 18  1  0
 18 19  1  0
 19 20  1  6
 20 21  2  0
 20 22  1  0
 22 23  1  0
 23 24  1  6
 24 25  1  0
 25 26  1  0
 26 27  1  0
 27 28  2  3
 28 29  1  0
 28 30  1  0
 23 31  1  0
 31 32  2  0
 31 33  1  0
 33 34  1  0
 34 35  1  0
 35 36  1  0
 36 37  1  0
 37 38  1  6
 38 39  2  0
 38 40  1  0
 40 41  1  0
 41 42  1  0
 42 43  2  0
 42 44  1  0
 44 45  1  0
 45 46  1  0
 46 47  1  0
 47 48  1  0
 48 49  1  6
 49 50  2  0
 49 51  1  0
  3 52  1  6
  2 53  1  0
 19 15  1  0
 37 33  1  0
 48 44  1  0
M  END
$$$$
