
     RDKit          3D

 57 60  0  0  0  0  0  0  0  0999 V2000
   -6.5057    6.3800    0.1361 C   0  0  0  0  0  0  0  0  0  0  0  0
   -6.0273    6.8620    1.8151 S   0  0  0  0  0  0  0  0  0  0  0  0
   -4.9744    5.4253    2.2023 C   0  0  0  0  0  0  0  0  0  0  0  0
   -4.3503    5.5903    3.5898 C   0  0  0  0  0  0  0  0  0  0  0  0
   -3.4080    4.4500    4.0039 C   0  0  1  0  0  0  0  0  0  0  0  0
   -4.1824    3.1346    4.2266 C   0  0  0  0  0  0  0  0  0  0  0  0
   -4.7128    2.8452    5.2940 O   0  0  0  0  0  0  0  0  0  0  0  0
   -4.2552    2.3385    3.1085 N   0  0  0  0  0  0  0  0  0  0  0  0
   -5.0514    1.1145    3.0509 C   0  0  1  0  0  0  0  0  0  0  0  0
   -6.5386    1.4375    2.8661 C   0  0  0  0  0  0  0  0  0  0  0  0
   -7.4385    0.2714    3.2765 C   0  0  0  0  0  0  0  0  0  0  0  0
   -8.8878    0.5882    3.0310 C   0  0  0  0  0  0  0  0  0  0  0  0
   -9.3449    1.4819    2.3396 O   0  0  0  0  0  0  0  0  0  0  0  0
   -9.7066   -0.2780    3.6594 O   0  0  0  0  0  0  0  0  0  0  0  0
   -4.4979    0.2666    1.8866 C   0  0  0  0  0  0  0  0  0  0  0  0
   -5.1949   -0.4132    1.1357 O   0  0  0  0  0  0  0  0  0  0  0  0
   -3.1232    0.2834    1.7919 N   0  0  0  0  0  0  0  0  0  0  0  0
   -2.4121   -0.2370    0.6300 C   0  0  1  0  0  0  0  0  0  0  0  0
   -2.1223    0.8531   -0.4254 C   0  0  0  0  0  0  0  0  0  0  0  0
   -3.2580    1.7838   -0.7084 C   0  0  0  0  0  0  0  0  0  0  0  0
   -3.3319    3.1607   -0.6777 C   0  0  0  0  0  0  0  0  0  0  0  0
   -4.6058    3.5904   -0.9398 N   0  0  0  0  0  0  0  0  0  0  0  0
   -5.3018    2.4990   -1.1575 C   0  0  0  0  0  0  0  0  0  0  0  0
   -4.5257    1.3789   -1.0539 N   0  0  0  0  0  0  0  0  0  0  0  0
   -1.0721   -0.8174    1.1125 C   0  0  0  0  0  0  0  0  0  0  0  0
   -0.5300   -0.4505    2.1548 O   0  0  0  0  0  0  0  0  0  0  0  0
   -0.5021   -1.7360    0.2542 N   0  0  0  0  0  0  0  0  0  0  0  0
    0.9061   -2.1235    0.4282 C   0  0  1  0  0  0  0  0  0  0  0  0
    1.1331   -3.5234   -0.1623 C   0  0  0  0  0  0  0  0  0  0  0  0
    2.4456   -4.1572    0.2266 C   0  0  0  0  0  0  0  0  0  0  0  0
    3.5507   -4.0856   -0.6313 C   0  0  0  0  0  0  0  0  0  0  0  0
    4.7736   -4.6463   -0.2624 C   0  0  0  0  0  0  0  0  0  0  0  0
    4.9013   -5.2922    0.9651 C   0  0  0  0  0  0  0  0  0  0  0  0
    3.8071   -5.3746    1.8249 C   0  0  0  0  0  0  0  0  0  0  0  0
    2.5847   -4.8078    1.4597 C   0  0  0  0  0  0  0  0  0  0  0  0
    1.7208   -1.0509   -0.3393 C   0  0  0  0  0  0  0  0  0  0  0  0
    1.2220   -0.4593   -1.3077 O   0  0  0  0  0  0  0  0  0  0  0  0
    3.0280   -0.8158    0.0279 N   0  0  0  0  0  0  0  0  0  0  0  0
    3.5644   -1.0156    1.3680 C   0  0  0  0  0  0  0  0  0  0  0  0
    4.5358    0.1386    1.5569 C   0  0  0  0  0  0  0  0  0  0  0  0
    5.0982    0.3333    0.1584 C   0  0  0  0  0  0  0  0  0  0  0  0
    3.8851    0.0934   -0.7487 C   0  0  1  0  0  0  0  0  0  0  0  0
    4.2972   -0.5237   -2.1066 C   0  0  0  0  0  0  0  0  0  0  0  0
    5.3894   -1.0471   -2.3145 O   0  0  0  0  0  0  0  0  0  0  0  0
    3.3166   -0.4474   -3.0757 N   0  0  0  0  0  0  0  0  0  0  0  0
    3.4586   -1.1354   -4.3466 C   0  0  0  0  0  0  0  0  0  0  0  0
    2.6645   -2.4489   -4.3504 C   0  0  0  0  0  0  0  0  0  0  0  0
    1.7391   -2.6484   -3.5585 O   0  0  0  0  0  0  0  0  0  0  0  0
    2.9818   -3.3723   -5.3210 N   0  0  0  0  0  0  0  0  0  0  0  0
    3.9891   -3.2460   -6.3601 C   0  0  0  0  0  0  0  0  0  0  0  0
    3.9854   -4.5938   -7.0668 C   0  0  0  0  0  0  0  0  0  0  0  0
    2.5585   -5.0958   -6.8635 C   0  0  0  0  0  0  0  0  0  0  0  0
    2.2168   -4.6145   -5.4532 C   0  0  1  0  0  0  0  0  0  0  0  0
    2.5795   -5.6904   -4.4229 C   0  0  0  0  0  0  0  0  0  0  0  0
    2.0038   -6.7609   -4.2890 O   0  0  0  0  0  0  0  0  0  0  0  0
    3.6606   -5.4078   -3.6682 O   0  0  0  0  0  0  0  0  0  0  0  0
   -2.3222    4.2416    3.0127 N   0  0  0  0  0  0  0  0  0  0  0  0
  1  2  1  0
  2  3  1  0
  3  4  1  0
  4  5  1  0
  5  6  1  0
  6  7  2  0
  6  8  1  0
  8  9  1  0
  9 10  1  6
 10 11  1  0
 11 12  1  0
 12 13  2  0
 12 14  1  0
  9 15  1  0
 15 16  2  0
 15 17  1  0
 17 18  1  0
 18 19  1  6
 19 20  1  0
 20 21  2  0
 21 22  1  0
 22 23  2  0
 23 24  1  0
 18 25  1  0
 25 26  2  0
 25 27  1  0
 27 28  1  0
 28 29  1  6
 29 30  1  0
 30 31  2  0
 31 32  1  0
 32 33  2  0
 33 34  1  0
 34 35  2  0
 28 36  1  0
 36 37  2  0
 36 38  1  0
 38 39  1  0
 39 40  1  0
 40 41  1  0
 41 42  1  0
 42 43  1  6
 43 44  2  0
 43 45  1  0
 45 46  1  0
 46 47  1  0
 47 48  2  0
 47 49  1  0
 49 50  1  0
 50 51  1  0
 51 52  1  0
 52 53  1  0
 53 54  1  1
 54 55  2  0
 54 56  1  0
  5 57  1  6
 24 20  1  0
 35 30  1  0
 42 38  1  0
 53 49  1  0
M  END
$$$$
