
     RDKit          3D

236238  0  0  0  0  0  0  0  0999 V2000
    1.3806   -0.3137   -4.3512 C   0  0  0  0  0  0  0  0  0  0  0  0
    1.2530   -1.2902   -3.1850 C   0  0  0  0  0  0  0  0  0  0  0  0
    2.4432   -2.2795   -3.0693 C   0  0  2  0  0  0  0  0  0  0  0  0
    2.5146   -3.1255   -4.3557 C   0  0  0  0  0  0  0  0  0  0  0  0
    2.3530   -3.1965   -1.8074 C   0  0  1  0  0  0  0  0  0  0  0  0
    3.7506   -3.5972   -1.2192 C   0  0  0  0  0  0  0  0  0  0  0  0
    4.0669   -3.4255   -0.0420 O   0  0  0  0  0  0  0  0  0  0  0  0
    4.6263   -4.1724   -2.1228 N   0  0  0  0  0  0  0  0  0  0  0  0
    5.9243   -4.7062   -1.6689 C   0  0  1  0  0  0  0  0  0  0  0  0
    6.6135   -5.5219   -2.7777 C   0  0  0  0  0  0  0  0  0  0  0  0
    5.9023   -6.8138   -3.1077 C   0  0  0  0  0  0  0  0  0  0  0  0
    5.9690   -7.9001   -2.2231 C   0  0  0  0  0  0  0  0  0  0  0  0
    5.3362   -9.1046   -2.5346 C   0  0  0  0  0  0  0  0  0  0  0  0
    4.6276   -9.2313   -3.7273 C   0  0  0  0  0  0  0  0  0  0  0  0
    4.5510   -8.1557   -4.6105 C   0  0  0  0  0  0  0  0  0  0  0  0
    5.1873   -6.9521   -4.3035 C   0  0  0  0  0  0  0  0  0  0  0  0
    6.9240   -3.6013   -1.2725 C   0  0  0  0  0  0  0  0  0  0  0  0
    7.9431   -3.8565   -0.6336 O   0  0  0  0  0  0  0  0  0  0  0  0
    6.6860   -2.3581   -1.8054 N   0  0  0  0  0  0  0  0  0  0  0  0
    7.5064   -1.2080   -1.4380 C   0  0  1  0  0  0  0  0  0  0  0  0
    8.5421   -0.8238   -2.5172 C   0  0  1  0  0  0  0  0  0  0  0  0
    9.6185   -1.8869   -2.6993 C   0  0  0  0  0  0  0  0  0  0  0  0
    7.8905   -0.6115   -3.7821 O   0  0  0  0  0  0  0  0  0  0  0  0
    6.5683   -0.0344   -1.1038 C   0  0  0  0  0  0  0  0  0  0  0  0
    6.2589    0.2609    0.0503 O   0  0  0  0  0  0  0  0  0  0  0  0
    6.0240    0.6176   -2.1901 N   0  0  0  0  0  0  0  0  0  0  0  0
    5.3344    1.8971   -2.0102 C   0  0  1  0  0  0  0  0  0  0  0  0
    5.2785    2.6897   -3.3042 C   0  0  0  0  0  0  0  0  0  0  0  0
    6.5909    3.3943   -3.5169 C   0  0  0  0  0  0  0  0  0  0  0  0
    7.5157    2.8816   -4.1406 O   0  0  0  0  0  0  0  0  0  0  0  0
    6.7242    4.6050   -2.9080 N   0  0  0  0  0  0  0  0  0  0  0  0
    3.9095    1.6528   -1.4687 C   0  0  0  0  0  0  0  0  0  0  0  0
    3.2918    0.6128   -1.7007 O   0  0  0  0  0  0  0  0  0  0  0  0
    3.3514    2.6431   -0.6889 N   0  0  0  0  0  0  0  0  0  0  0  0
    2.0980    2.4579    0.0708 C   0  0  1  0  0  0  0  0  0  0  0  0
    2.2251    1.3817    1.1628 C   0  0  0  0  0  0  0  0  0  0  0  0
    2.2234    0.0704    0.5882 O   0  0  0  0  0  0  0  0  0  0  0  0
    1.6241    3.7853    0.7183 C   0  0  0  0  0  0  0  0  0  0  0  0
    2.4144    4.5688    1.2423 O   0  0  0  0  0  0  0  0  0  0  0  0
    0.2547    4.0391    0.6338 N   0  0  0  0  0  0  0  0  0  0  0  0
   -0.3881    5.1153    1.4383 C   0  0  1  0  0  0  0  0  0  0  0  0
    0.1800    6.5329    1.2287 C   0  0  0  0  0  0  0  0  0  0  0  0
   -0.0660    7.4712    2.3915 C   0  0  0  0  0  0  0  0  0  0  0  0
   -1.1043    8.4126    2.3581 C   0  0  0  0  0  0  0  0  0  0  0  0
   -1.3211    9.2700    3.4389 C   0  0  0  0  0  0  0  0  0  0  0  0
   -0.5022    9.1795    4.5599 C   0  0  0  0  0  0  0  0  0  0  0  0
    0.5364    8.2571    4.6095 C   0  0  0  0  0  0  0  0  0  0  0  0
    0.7517    7.4016    3.5293 C   0  0  0  0  0  0  0  0  0  0  0  0
   -0.7240    9.9496    5.6632 O   0  0  0  0  0  0  0  0  0  0  0  0
   -1.9162    5.2209    1.1511 C   0  0  0  0  0  0  0  0  0  0  0  0
   -2.7232    5.3991    2.0618 O   0  0  0  0  0  0  0  0  0  0  0  0
   -2.3090    5.2825   -0.1757 N   0  0  0  0  0  0  0  0  0  0  0  0
   -3.6921    5.6228   -0.5527 C   0  0  1  0  0  0  0  0  0  0  0  0
   -3.8111    7.1050   -0.9193 C   0  0  0  0  0  0  0  0  0  0  0  0
   -5.2191    7.6074   -1.2534 C   0  0  0  0  0  0  0  0  0  0  0  0
   -6.2593    7.3633   -0.1572 C   0  0  0  0  0  0  0  0  0  0  0  0
   -7.4683    8.1277   -0.4351 N   0  0  0  0  0  0  0  0  0  0  0  0
   -8.3471    7.7575   -1.3951 C   0  0  0  0  0  0  0  0  0  0  0  0
   -8.3193    6.6518   -2.0396 N   0  0  0  0  0  0  0  0  0  0  0  0
   -9.2754    8.7109   -1.5999 N   0  0  0  0  0  0  0  0  0  0  0  0
   -4.2615    4.6582   -1.6146 C   0  0  0  0  0  0  0  0  0  0  0  0
   -4.8549    3.6313   -1.2714 O   0  0  0  0  0  0  0  0  0  0  0  0
   -4.0131    4.8927   -2.9442 N   0  0  0  0  0  0  0  0  0  0  0  0
   -4.7558    4.1321   -3.9551 C   0  0  1  0  0  0  0  0  0  0  0  0
   -6.1074    4.8169   -4.2217 C   0  0  0  0  0  0  0  0  0  0  0  0
   -6.9977    4.0829   -5.2327 C   0  0  0  0  0  0  0  0  0  0  0  0
   -8.3212    4.8213   -5.4429 C   0  0  0  0  0  0  0  0  0  0  0  0
   -9.1667    4.1404   -6.5165 C   0  0  0  0  0  0  0  0  0  0  0  0
  -10.3567    4.9399   -6.8033 N   0  0  0  0  0  0  0  0  0  0  0  0
   -3.9695    3.9870   -5.2730 C   0  0  0  0  0  0  0  0  0  0  0  0
   -3.4023    4.9302   -5.8220 O   0  0  0  0  0  0  0  0  0  0  0  0
   -4.0331    2.7107   -5.8072 N   0  0  0  0  0  0  0  0  0  0  0  0
   -3.6248    2.4190   -7.1898 C   0  0  1  0  0  0  0  0  0  0  0  0
   -2.0973    2.5030   -7.4267 C   0  0  0  0  0  0  0  0  0  0  0  0
   -1.7949    2.5761   -8.9282 C   0  0  0  0  0  0  0  0  0  0  0  0
   -1.2788    1.3686   -6.8039 C   0  0  0  0  0  0  0  0  0  0  0  0
   -4.2331    1.0412   -7.5349 C   0  0  0  0  0  0  0  0  0  0  0  0
   -4.8117    0.8126   -8.5936 O   0  0  0  0  0  0  0  0  0  0  0  0
   -4.0362    0.0819   -6.5604 N   0  0  0  0  0  0  0  0  0  0  0  0
   -4.8475   -1.1252   -6.4847 C   0  0  1  0  0  0  0  0  0  0  0  0
   -3.9813   -2.3842   -6.3093 C   0  0  0  0  0  0  0  0  0  0  0  0
   -2.8658   -2.3445   -5.2403 C   0  0  0  0  0  0  0  0  0  0  0  0
   -3.4086   -2.3934   -3.8158 C   0  0  0  0  0  0  0  0  0  0  0  0
   -1.9141   -3.5292   -5.4501 C   0  0  0  0  0  0  0  0  0  0  0  0
   -5.9361   -0.8870   -5.4046 C   0  0  0  0  0  0  0  0  0  0  0  0
   -5.9627    0.1313   -4.7081 O   0  0  0  0  0  0  0  0  0  0  0  0
   -6.9000   -1.8703   -5.3145 N   0  0  0  0  0  0  0  0  0  0  0  0
   -7.9283   -1.8073   -4.2902 C   0  0  0  0  0  0  0  0  0  0  0  0
   -7.4086   -2.3995   -2.9745 C   0  0  0  0  0  0  0  0  0  0  0  0
   -6.4594   -3.1720   -2.9526 O   0  0  0  0  0  0  0  0  0  0  0  0
   -8.1459   -2.0333   -1.8685 N   0  0  0  0  0  0  0  0  0  0  0  0
   -7.7907   -2.2601   -0.4539 C   0  0  1  0  0  0  0  0  0  0  0  0
   -6.8422   -3.4174   -0.1248 C   0  0  0  0  0  0  0  0  0  0  0  0
   -7.4352   -4.7949   -0.4228 C   0  0  0  0  0  0  0  0  0  0  0  0
   -6.4138   -5.8937   -0.2223 C   0  0  0  0  0  0  0  0  0  0  0  0
   -5.2474   -5.7073    0.1106 O   0  0  0  0  0  0  0  0  0  0  0  0
   -6.8813   -7.1566   -0.4342 N   0  0  0  0  0  0  0  0  0  0  0  0
   -7.2906   -0.9541    0.2240 C   0  0  0  0  0  0  0  0  0  0  0  0
   -7.1139   -0.8808    1.4365 O   0  0  0  0  0  0  0  0  0  0  0  0
   -7.0766    0.1081   -0.6216 N   0  0  0  0  0  0  0  0  0  0  0  0
   -7.0891    1.5060   -0.1833 C   0  0  1  0  0  0  0  0  0  0  0  0
   -8.4929    2.0941    0.0680 C   0  0  0  0  0  0  0  0  0  0  0  0
   -9.2485    1.5934    1.3158 C   0  0  0  0  0  0  0  0  0  0  0  0
   -9.9046    2.7727    2.0427 C   0  0  0  0  0  0  0  0  0  0  0  0
  -10.3339    0.5817    0.9418 C   0  0  0  0  0  0  0  0  0  0  0  0
   -6.0432    1.8952    0.8926 C   0  0  0  0  0  0  0  0  0  0  0  0
   -6.2694    2.6703    1.8187 O   0  0  0  0  0  0  0  0  0  0  0  0
   -4.7694    1.4297    0.6303 N   0  0  0  0  0  0  0  0  0  0  0  0
   -3.6247    1.8726    1.4330 C   0  0  1  0  0  0  0  0  0  0  0  0
   -3.5258    1.0838    2.7409 C   0  0  0  0  0  0  0  0  0  0  0  0
   -4.2933    1.6972    3.7828 O   0  0  0  0  0  0  0  0  0  0  0  0
   -2.3266    1.8557    0.5968 C   0  0  0  0  0  0  0  0  0  0  0  0
   -1.1923    1.7376    1.0592 O   0  0  0  0  0  0  0  0  0  0  0  0
   -2.4863    2.2256   -0.7254 N   0  0  0  0  0  0  0  0  0  0  0  0
   -1.5156    1.8608   -1.7484 C   0  0  1  0  0  0  0  0  0  0  0  0
   -2.0950    0.6679   -2.5132 C   0  0  0  0  0  0  0  0  0  0  0  0
   -1.1234    2.9960   -2.7414 C   0  0  0  0  0  0  0  0  0  0  0  0
   -1.5016    2.9602   -3.9103 O   0  0  0  0  0  0  0  0  0  0  0  0
   -0.2931    4.0224   -2.2765 N   0  0  0  0  0  0  0  0  0  0  0  0
    0.6685    4.6140   -3.2397 C   0  0  1  0  0  0  0  0  0  0  0  0
    0.0427    5.4035   -4.4137 C   0  0  0  0  0  0  0  0  0  0  0  0
   -0.9237    6.5158   -4.0107 C   0  0  0  0  0  0  0  0  0  0  0  0
   -0.3842    7.9016   -4.3574 C   0  0  0  0  0  0  0  0  0  0  0  0
   -1.2673    8.9466   -3.8533 N   0  0  0  0  0  0  0  0  0  0  0  0
   -1.3033    9.2664   -2.5426 C   0  0  0  0  0  0  0  0  0  0  0  0
   -0.8195    8.5442   -1.5979 N   0  0  0  0  0  0  0  0  0  0  0  0
   -1.9167   10.4459   -2.3291 N   0  0  0  0  0  0  0  0  0  0  0  0
    1.8962    5.4122   -2.6892 C   0  0  0  0  0  0  0  0  0  0  0  0
    3.0188    5.1775   -3.1420 O   0  0  0  0  0  0  0  0  0  0  0  0
    1.7026    6.4815   -1.8352 N   0  0  0  0  0  0  0  0  0  0  0  0
    2.7927    7.5015   -1.7811 C   0  0  1  0  0  0  0  0  0  0  0  0
    2.2660    8.8080   -1.1528 C   0  0  0  0  0  0  0  0  0  0  0  0
    3.3207    9.8891   -0.8927 C   0  0  0  0  0  0  0  0  0  0  0  0
    2.7161   11.2142   -0.3992 C   0  0  0  0  0  0  0  0  0  0  0  0
    1.8335   11.1077    0.8481 C   0  0  0  0  0  0  0  0  0  0  0  0
    2.5279   10.4663    1.9526 N   0  0  0  0  0  0  0  0  0  0  0  0
    4.0914    7.0726   -1.0450 C   0  0  0  0  0  0  0  0  0  0  0  0
    5.2019    7.2228   -1.5540 O   0  0  0  0  0  0  0  0  0  0  0  0
    3.9160    6.6985    0.2687 N   0  0  0  0  0  0  0  0  0  0  0  0
    5.0469    6.4383    1.1700 C   0  0  1  0  0  0  0  0  0  0  0  0
    4.5994    6.7312    2.6123 C   0  0  0  0  0  0  0  0  0  0  0  0
    5.7203    7.2863    3.5140 C   0  0  0  0  0  0  0  0  0  0  0  0
    6.0698    8.7343    3.1602 C   0  0  0  0  0  0  0  0  0  0  0  0
    5.2895    7.2074    4.9799 C   0  0  0  0  0  0  0  0  0  0  0  0
    5.4811    4.9761    0.9197 C   0  0  0  0  0  0  0  0  0  0  0  0
    5.2676    4.4297   -0.1667 O   0  0  0  0  0  0  0  0  0  0  0  0
    6.1622    4.3211    1.9146 N   0  0  0  0  0  0  0  0  0  0  0  0
    6.5844    2.9368    1.7433 C   0  0  1  0  0  0  0  0  0  0  0  0
    8.0204    2.8252    1.2036 C   0  0  0  0  0  0  0  0  0  0  0  0
    9.0834    3.7294    1.8661 C   0  0  0  0  0  0  0  0  0  0  0  0
   10.4158    3.5720    1.1258 C   0  0  0  0  0  0  0  0  0  0  0  0
    9.2868    3.4335    3.3500 C   0  0  0  0  0  0  0  0  0  0  0  0
    6.3206    2.0832    2.9998 C   0  0  0  0  0  0  0  0  0  0  0  0
    6.1062    2.5858    4.0978 O   0  0  0  0  0  0  0  0  0  0  0  0
    6.3318    0.7355    2.7457 N   0  0  0  0  0  0  0  0  0  0  0  0
    6.1637   -0.3426    3.7286 C   0  0  1  0  0  0  0  0  0  0  0  0
    4.6944   -0.4333    4.1652 C   0  0  0  0  0  0  0  0  0  0  0  0
    4.4775   -1.1623    5.4945 C   0  0  0  0  0  0  0  0  0  0  0  0
    4.7759   -0.3227    6.7192 C   0  0  0  0  0  0  0  0  0  0  0  0
    5.3759    0.7399    6.7167 O   0  0  0  0  0  0  0  0  0  0  0  0
    4.3691   -0.8901    7.8947 N   0  0  0  0  0  0  0  0  0  0  0  0
    6.7318   -1.5984    2.9771 C   0  0  0  0  0  0  0  0  0  0  0  0
    7.6439   -1.4828    2.1532 O   0  0  0  0  0  0  0  0  0  0  0  0
    6.2210   -2.8352    3.2989 N   0  0  0  0  0  0  0  0  0  0  0  0
    6.5593   -4.0568    2.5306 C   0  0  1  0  0  0  0  0  0  0  0  0
    8.0378   -4.4437    2.5876 C   0  0  0  0  0  0  0  0  0  0  0  0
    8.2896   -5.6578    1.7347 C   0  0  0  0  0  0  0  0  0  0  0  0
    7.4832   -6.2801    1.0605 O   0  0  0  0  0  0  0  0  0  0  0  0
    9.5824   -6.0477    1.7801 O   0  0  0  0  0  0  0  0  0  0  0  0
    5.7006   -5.1827    3.1520 C   0  0  0  0  0  0  0  0  0  0  0  0
    6.1613   -6.0603    3.8760 O   0  0  0  0  0  0  0  0  0  0  0  0
    4.3439   -5.0486    2.9224 N   0  0  0  0  0  0  0  0  0  0  0  0
    3.3637   -5.9717    3.5172 C   0  0  1  0  0  0  0  0  0  0  0  0
    2.8115   -5.4869    4.8900 C   0  0  1  0  0  0  0  0  0  0  0  0
    1.9167   -6.5734    5.5155 C   0  0  0  0  0  0  0  0  0  0  0  0
    3.9345   -5.1120    5.8843 C   0  0  0  0  0  0  0  0  0  0  0  0
    3.4362   -4.5754    7.2194 C   0  0  0  0  0  0  0  0  0  0  0  0
    2.2360   -6.1843    2.4706 C   0  0  0  0  0  0  0  0  0  0  0  0
    1.0655   -5.8601    2.6506 O   0  0  0  0  0  0  0  0  0  0  0  0
    2.6767   -6.7905    1.3059 N   0  0  0  0  0  0  0  0  0  0  0  0
    1.7134   -7.4763    0.4341 C   0  0  1  0  0  0  0  0  0  0  0  0
    2.1490   -7.3495   -1.0296 C   0  0  0  0  0  0  0  0  0  0  0  0
    1.4251   -8.2352   -2.0441 C   0  0  0  0  0  0  0  0  0  0  0  0
   -0.3896   -8.1008   -2.0518 S   0  0  0  0  0  0  0  0  0  0  0  0
   -0.5771   -6.4883   -2.8492 C   0  0  0  0  0  0  0  0  0  0  0  0
    1.7366   -8.9465    0.8968 C   0  0  0  0  0  0  0  0  0  0  0  0
    2.7678   -9.5021    1.2827 O   0  0  0  0  0  0  0  0  0  0  0  0
    0.5383   -9.6087    0.8255 N   0  0  0  0  0  0  0  0  0  0  0  0
    0.4043  -11.0417    1.0980 C   0  0  1  0  0  0  0  0  0  0  0  0
    0.7406  -11.4041    2.5518 C   0  0  0  0  0  0  0  0  0  0  0  0
    2.1313  -11.6941    2.6941 O   0  0  0  0  0  0  0  0  0  0  0  0
   -1.0297  -11.4779    0.7557 C   0  0  0  0  0  0  0  0  0  0  0  0
   -1.9386  -10.6707    0.5745 O   0  0  0  0  0  0  0  0  0  0  0  0
   -1.2303  -12.8470    0.7019 N   0  0  0  0  0  0  0  0  0  0  0  0
   -2.4437  -13.3653    0.0391 C   0  0  1  0  0  0  0  0  0  0  0  0
   -2.3302  -14.8885   -0.1882 C   0  0  0  0  0  0  0  0  0  0  0  0
   -2.5221  -15.3135   -1.6528 C   0  0  0  0  0  0  0  0  0  0  0  0
   -3.9717  -15.3263   -2.1483 C   0  0  0  0  0  0  0  0  0  0  0  0
   -4.5486  -14.0020   -2.2428 N   0  0  0  0  0  0  0  0  0  0  0  0
   -4.1690  -13.0926   -3.1660 C   0  0  0  0  0  0  0  0  0  0  0  0
   -3.4056  -13.3343   -4.1675 N   0  0  0  0  0  0  0  0  0  0  0  0
   -4.6689  -11.8718   -2.9054 N   0  0  0  0  0  0  0  0  0  0  0  0
   -3.7238  -13.0895    0.8650 C   0  0  0  0  0  0  0  0  0  0  0  0
   -4.8545  -13.1157    0.3774 O   0  0  0  0  0  0  0  0  0  0  0  0
   -3.5609  -13.0135    2.2210 N   0  0  0  0  0  0  0  0  0  0  0  0
    1.6392   -2.5596   -0.7059 N   0  0  0  0  0  0  0  0  0  0  0  0
    0.8543   -3.2940    0.1646 C   0  0  0  0  0  0  0  0  0  0  0  0
    0.4548   -4.4188   -0.1119 O   0  0  0  0  0  0  0  0  0  0  0  0
    0.5639   -2.5573    1.4882 C   0  0  2  0  0  0  0  0  0  0  0  0
    1.8284   -2.4332    2.3305 C   0  0  0  0  0  0  0  0  0  0  0  0
   -0.4460   -3.2239    2.2908 N   0  0  0  0  0  0  0  0  0  0  0  0
   -1.5908   -2.5815    2.6869 C   0  0  0  0  0  0  0  0  0  0  0  0
   -1.9336   -1.4845    2.2445 O   0  0  0  0  0  0  0  0  0  0  0  0
   -2.2949   -3.2230    3.8964 C   0  0  2  0  0  0  0  0  0  0  0  0
   -3.8045   -3.1357    3.7449 C   0  0  0  0  0  0  0  0  0  0  0  0
   -4.2780   -4.2687    2.8897 C   0  0  0  0  0  0  0  0  0  0  0  0
   -4.9104   -5.2354    3.2864 O   0  0  0  0  0  0  0  0  0  0  0  0
   -3.9297   -4.1146    1.6018 O   0  0  0  0  0  0  0  0  0  0  0  0
   -1.8423   -2.4118    5.0431 N   0  0  0  0  0  0  0  0  0  0  0  0
   -0.7071   -2.7705    5.7428 C   0  0  0  0  0  0  0  0  0  0  0  0
   -0.2024   -3.8891    5.6619 O   0  0  0  0  0  0  0  0  0  0  0  0
   -0.2372   -1.7516    6.7996 C   0  0  2  0  0  0  0  0  0  0  0  0
   -0.8805   -2.1059    8.1375 C   0  0  0  0  0  0  0  0  0  0  0  0
   -0.5348   -0.3548    6.4632 N   0  0  0  0  0  0  0  0  0  0  0  0
    0.3217    0.3540    5.6415 C   0  0  0  0  0  0  0  0  0  0  0  0
    1.2191   -0.2041    5.0087 O   0  0  0  0  0  0  0  0  0  0  0  0
    0.2070    1.8997    5.7129 C   0  0  2  0  0  0  0  0  0  0  0  0
   -1.2330    2.4390    5.6545 C   0  0  0  0  0  0  0  0  0  0  0  0
   -1.3635    3.8247    6.2557 C   0  0  0  0  0  0  0  0  0  0  0  0
   -1.8415    4.8806    5.4734 C   0  0  0  0  0  0  0  0  0  0  0  0
   -1.9138    6.1739    5.9941 C   0  0  0  0  0  0  0  0  0  0  0  0
   -1.4977    6.4119    7.2974 C   0  0  0  0  0  0  0  0  0  0  0  0
   -1.0822    5.3677    8.1120 C   0  0  0  0  0  0  0  0  0  0  0  0
   -1.0208    4.0739    7.5940 C   0  0  0  0  0  0  0  0  0  0  0  0
   -1.4718    7.6776    7.8082 O   0  0  0  0  0  0  0  0  0  0  0  0
    1.0272    2.5084    4.6347 N   0  0  0  0  0  0  0  0  0  0  0  0
  1  2  1  0
  2  3  1  0
  3  4  1  6
  3  5  1  0
  5  6  1  0
  6  7  2  0
  6  8  1  0
  8  9  1  0
  9 10  1  6
 10 11  1  0
 11 12  2  0
 12 13  1  0
 13 14  2  0
 14 15  1  0
 15 16  2  0
  9 17  1  0
 17 18  2  0
 17 19  1  0
 20 19  1  6
 20 21  1  0
 21 22  1  6
 21 23  1  0
 20 24  1  0
 24 25  2  0
 24 26  1  0
 26 27  1  0
 27 28  1  6
 28 29  1  0
 29 30  2  0
 29 31  1  0
 27 32  1  0
 32 33  2  0
 32 34  1  0
 34 35  1  0
 35 36  1  1
 36 37  1  0
 35 38  1  0
 38 39  2  0
 38 40  1  0
 40 41  1  0
 41 42  1  6
 42 43  1  0
 43 44  1  0
 44 45  2  0
 45 46  1  0
 46 47  2  0
 47 48  1  0
 46 49  1  0
 41 50  1  0
 50 51  2  0
 50 52  1  0
 52 53  1  0
 53 54  1  6
 54 55  1  0
 55 56  1  0
 56 57  1  0
 57 58  1  0
 58 59  2  0
 58 60  1  0
 53 61  1  0
 61 62  2  0
 61 63  1  0
 63 64  1  0
 64 65  1  6
 65 66  1  0
 66 67  1  0
 67 68  1  0
 68 69  1  0
 64 70  1  0
 70 71  2  0
 70 72  1  0
 73 72  1  1
 73 74  1  0
 74 75  1  0
 74 76  1  0
 73 77  1  0
 77 78  2  0
 77 79  1  0
 79 80  1  0
 80 81  1  1
 81 82  1  0
 82 83  1  0
 82 84  1  0
 80 85  1  0
 85 86  2  0
 85 87  1  0
 87 88  1  0
 88 89  1  0
 89 90  2  0
 89 91  1  0
 91 92  1  0
 92 93  1  6
 93 94  1  0
 94 95  1  0
 95 96  2  0
 95 97  1  0
 92 98  1  0
 98 99  2  0
 98100  1  0
100101  1  0
101102  1  1
102103  1  0
103104  1  0
103105  1  0
101106  1  0
106107  2  0
106108  1  0
108109  1  0
109110  1  1
110111  1  0
109112  1  0
112113  2  0
112114  1  0
114115  1  0
115116  1  6
115117  1  0
117118  2  0
117119  1  0
119120  1  0
120121  1  6
121122  1  0
122123  1  0
123124  1  0
124125  1  0
125126  2  0
125127  1  0
120128  1  0
128129  2  0
128130  1  0
130131  1  0
131132  1  1
132133  1  0
133134  1  0
134135  1  0
135136  1  0
131137  1  0
137138  2  0
137139  1  0
139140  1  0
140141  1  1
141142  1  0
142143  1  0
142144  1  0
140145  1  0
145146  2  0
145147  1  0
147148  1  0
148149  1  1
149150  1  0
150151  1  0
150152  1  0
148153  1  0
153154  2  0
153155  1  0
155156  1  0
156157  1  6
157158  1  0
158159  1  0
159160  2  0
159161  1  0
156162  1  0
162163  2  0
162164  1  0
164165  1  0
165166  1  1
166167  1  0
167168  2  0
167169  1  0
165170  1  0
170171  2  0
170172  1  0
173172  1  6
173174  1  0
174175  1  1
174176  1  0
176177  1  0
173178  1  0
178179  2  0
178180  1  0
180181  1  0
181182  1  6
182183  1  0
183184  1  0
184185  1  0
181186  1  0
186187  2  0
186188  1  0
188189  1  0
189190  1  1
190191  1  0
189192  1  0
192193  2  0
192194  1  0
194195  1  0
195196  1  1
196197  1  0
197198  1  0
198199  1  0
199200  1  0
200201  2  0
200202  1  0
195203  1  0
203204  2  0
203205  1  0
  5206  1  1
206207  1  0
207208  2  0
207209  1  0
209210  1  1
209211  1  0
211212  1  0
212213  2  0
212214  1  0
214215  1  6
215216  1  0
216217  2  0
216218  1  0
214219  1  0
219220  1  0
220221  2  0
220222  1  0
222223  1  1
222224  1  0
224225  1  0
225226  2  0
225227  1  0
227228  1  0
228229  1  0
229230  1  0
230231  2  0
231232  1  0
232233  2  0
233234  1  0
232235  1  0
227236  1  6
 16 11  1  0
 48 43  2  0
234229  2  0
M  END
$$$$
