5338394
     RDKit          3D

 22 24  0  0  0  0  0  0  0  0999 V2000
    7.7467   -1.3279   -0.0719 O   0  0  0  0  0  0  0  0  0  0  0  0
    2.4709    2.1678    0.1891 O   0  0  0  0  0  0  0  0  0  0  0  0
    0.3093    0.5407    0.0328 N   0  0  0  0  0  0  0  0  0  0  0  0
    1.5741    0.0574   -0.0200 N   0  0  0  0  0  0  0  0  0  0  0  0
   -4.3476   -0.7517   -0.0806 C   0  0  0  0  0  0  0  0  0  0  0  0
   -4.7566    0.5961    0.0568 C   0  0  0  0  0  0  0  0  0  0  0  0
   -2.9763   -1.0531   -0.1159 C   0  0  0  0  0  0  0  0  0  0  0  0
   -2.0218   -0.0404   -0.0177 C   0  0  0  0  0  0  0  0  0  0  0  0
   -3.7821    1.6027    0.1546 C   0  0  0  0  0  0  0  0  0  0  0  0
   -2.4242    1.2850    0.1173 C   0  0  0  0  0  0  0  0  0  0  0  0
   -5.3218   -1.7586   -0.1781 C   0  0  0  0  0  0  0  0  0  0  0  0
   -6.1278    0.8975    0.0921 C   0  0  0  0  0  0  0  0  0  0  0  0
   -6.6798   -1.4410   -0.1412 C   0  0  0  0  0  0  0  0  0  0  0  0
   -7.0820   -0.1157   -0.0066 C   0  0  0  0  0  0  0  0  0  0  0  0
   -0.6060   -0.3695   -0.0555 C   0  0  0  0  0  0  0  0  0  0  0  0
    3.9711    0.3553    0.0304 C   0  0  0  0  0  0  0  0  0  0  0  0
    5.0381    1.1027   -0.4459 C   0  0  0  0  0  0  0  0  0  0  0  0
    4.1491   -0.9470    0.4733 C   0  0  0  0  0  0  0  0  0  0  0  0
    2.6286    0.9533    0.0665 C   0  0  0  0  0  0  0  0  0  0  0  0
    6.3118    0.5349   -0.4805 C   0  0  0  0  0  0  0  0  0  0  0  0
    5.4226   -1.5147    0.4390 C   0  0  0  0  0  0  0  0  0  0  0  0
    6.5041   -0.7739   -0.0381 C   0  0  0  0  0  0  0  0  0  0  0  0
  1 22  1  0
  2 19  2  0
  3  4  1  0
  3 15  2  0
  4 19  1  0
  5  6  1  0
  5  7  1  0
  5 11  2  0
  6  9  1  0
  6 12  2  0
  7  8  2  0
  8 10  1  0
  8 15  1  0
  9 10  2  0
 11 13  1  0
 12 14  1  0
 13 14  2  0
 16 17  1  0
 16 18  2  0
 16 19  1  0
 17 20  2  0
 18 21  1  0
 20 22  1  0
 21 22  2  0
M  END
$$$$
