
     RDKit          3D

 46 47  0  0  0  0  0  0  0  0999 V2000
    1.5865   -2.3863    1.1926 C   0  0  0  0  0  0  0  0  0  0  0  0
    2.2438   -1.2863    0.4006 C   0  0  0  0  0  0  0  0  0  0  0  0
    3.5610   -1.5054   -0.0315 C   0  0  0  0  0  0  0  0  0  0  0  0
    4.2165   -0.5592   -0.8031 C   0  0  0  0  0  0  0  0  0  0  0  0
    3.5963    0.6329   -1.1430 C   0  0  0  0  0  0  0  0  0  0  0  0
    2.2791    0.8868   -0.7267 C   0  0  0  0  0  0  0  0  0  0  0  0
    1.5781   -0.0889    0.0314 C   0  0  0  0  0  0  0  0  0  0  0  0
    0.1234    0.1378    0.4195 C   0  0  0  0  0  0  0  0  0  0  0  0
   -0.8734   -0.6456   -0.4498 C   0  0  1  0  0  0  0  0  0  0  0  0
   -2.3053   -0.3966    0.0602 C   0  0  0  0  0  0  0  0  0  0  0  0
   -3.1074    0.3186   -0.5425 O   0  0  0  0  0  0  0  0  0  0  0  0
   -2.6112   -0.9639    1.2781 N   0  0  0  0  0  0  0  0  0  0  0  0
   -3.8722   -0.6670    1.9680 C   0  0  1  0  0  0  0  0  0  0  0  0
   -4.3451   -1.8775    2.7845 C   0  0  0  0  0  0  0  0  0  0  0  0
   -4.5566   -3.1602    1.9693 C   0  0  0  0  0  0  0  0  0  0  0  0
   -5.5414   -3.0518    0.7990 C   0  0  0  0  0  0  0  0  0  0  0  0
   -6.9500   -2.5729    1.1590 C   0  0  0  0  0  0  0  0  0  0  0  0
   -7.6284   -3.4560    2.0987 N   0  0  0  0  0  0  0  0  0  0  0  0
   -3.6971    0.5775    2.8789 C   0  0  0  0  0  0  0  0  0  0  0  0
   -4.1899    0.6701    4.0002 O   0  0  0  0  0  0  0  0  0  0  0  0
   -3.0185    1.6176    2.2895 N   0  0  0  0  0  0  0  0  0  0  0  0
   -2.7891    2.9043    2.9349 C   0  0  1  0  0  0  0  0  0  0  0  0
   -1.9223    2.8343    4.2073 C   0  0  0  0  0  0  0  0  0  0  0  0
   -0.6352    2.0464    4.0844 C   0  0  0  0  0  0  0  0  0  0  0  0
    0.4838    2.5826    3.4337 C   0  0  0  0  0  0  0  0  0  0  0  0
    1.6685    1.8493    3.3428 C   0  0  0  0  0  0  0  0  0  0  0  0
    1.7500    0.5774    3.9060 C   0  0  0  0  0  0  0  0  0  0  0  0
    0.6452    0.0340    4.5576 C   0  0  0  0  0  0  0  0  0  0  0  0
   -0.5418    0.7630    4.6443 C   0  0  0  0  0  0  0  0  0  0  0  0
   -2.1897    3.8579    1.8842 C   0  0  0  0  0  0  0  0  0  0  0  0
   -1.7838    3.4866    0.7839 O   0  0  0  0  0  0  0  0  0  0  0  0
   -2.1218    5.1776    2.2307 N   0  0  0  0  0  0  0  0  0  0  0  0
   -0.8397   -0.1984   -1.8392 N   0  0  0  0  0  0  0  0  0  0  0  0
   -0.8866   -1.0883   -2.8916 C   0  0  0  0  0  0  0  0  0  0  0  0
   -0.8090   -2.3037   -2.7527 O   0  0  0  0  0  0  0  0  0  0  0  0
   -1.1015   -0.3805   -4.2464 C   0  0  1  0  0  0  0  0  0  0  0  0
   -0.6040   -1.1988   -5.4438 C   0  0  0  0  0  0  0  0  0  0  0  0
    0.8870   -1.5703   -5.4168 C   0  0  0  0  0  0  0  0  0  0  0  0
    1.8177   -0.4160   -5.0463 C   0  0  0  0  0  0  0  0  0  0  0  0
    3.2062   -0.7279   -5.3765 N   0  0  0  0  0  0  0  0  0  0  0  0
    3.8782   -1.5249   -4.6387 C   0  0  0  0  0  0  0  0  0  0  0  0
    5.1636   -1.7971   -4.9535 N   0  0  0  0  0  0  0  0  0  0  0  0
    3.5229   -2.2145   -3.5350 N   0  0  0  0  0  0  0  0  0  0  0  0
   -2.5475   -0.1074   -4.4012 N   0  0  0  0  0  0  0  0  0  0  0  0
    1.6627    2.2087   -1.1086 C   0  0  0  0  0  0  0  0  0  0  0  0
    5.4656   -0.8672   -1.2558 O   0  0  0  0  0  0  0  0  0  0  0  0
  1  2  1  0
  2  3  1  0
  3  4  2  0
  4  5  1  0
  5  6  2  0
  6  7  1  0
  7  8  1  0
  9  8  1  1
  9 10  1  0
 10 11  2  0
 10 12  1  0
 12 13  1  0
 13 14  1  1
 14 15  1  0
 15 16  1  0
 16 17  1  0
 17 18  1  0
 13 19  1  0
 19 20  2  0
 19 21  1  0
 21 22  1  0
 22 23  1  1
 23 24  1  0
 24 25  2  0
 25 26  1  0
 26 27  2  0
 27 28  1  0
 28 29  2  0
 22 30  1  0
 30 31  2  0
 30 32  1  0
  9 33  1  0
 33 34  1  0
 34 35  2  0
 34 36  1  0
 36 37  1  0
 37 38  1  0
 38 39  1  0
 39 40  1  0
 40 41  2  3
 41 42  1  0
 41 43  1  0
 36 44  1  6
  6 45  1  0
  4 46  1  0
  7  2  2  0
 29 24  1  0
M  END
$$$$
