
     RDKit          3D

 62 61  0  0  0  0  0  0  0  0999 V2000
   -4.1282    2.9486   -2.5468 C   0  0  0  0  0  0  0  0  0  0  0  0
   -3.2212    3.9947   -1.9008 C   0  0  2  0  0  0  0  0  0  0  0  0
   -2.2344    3.4367   -0.8383 C   0  0  1  0  0  0  0  0  0  0  0  0
   -3.0270    2.7671    0.3116 C   0  0  0  0  0  0  0  0  0  0  0  0
   -3.4997    3.3726    1.2682 O   0  0  0  0  0  0  0  0  0  0  0  0
   -3.2709    1.4182    0.0909 N   0  0  0  0  0  0  0  0  0  0  0  0
   -3.9967    0.6001    1.0640 C   0  0  1  0  0  0  0  0  0  0  0  0
   -5.4945    0.9478    1.1016 C   0  0  0  0  0  0  0  0  0  0  0  0
   -6.1055    0.6972    2.4787 C   0  0  0  0  0  0  0  0  0  0  0  0
   -5.5826    1.6848    3.4863 C   0  0  0  0  0  0  0  0  0  0  0  0
   -4.7225    1.4626    4.3237 O   0  0  0  0  0  0  0  0  0  0  0  0
   -6.1363    2.9029    3.3491 O   0  0  0  0  0  0  0  0  0  0  0  0
   -3.8094   -0.8716    0.6577 C   0  0  0  0  0  0  0  0  0  0  0  0
   -3.7060   -1.7822    1.4757 O   0  0  0  0  0  0  0  0  0  0  0  0
   -3.8735   -1.0874   -0.7041 N   0  0  0  0  0  0  0  0  0  0  0  0
   -3.3857   -2.3253   -1.2969 C   0  0  1  0  0  0  0  0  0  0  0  0
   -3.9657   -2.5019   -2.7167 C   0  0  1  0  0  0  0  0  0  0  0  0
   -5.4497   -2.8539   -2.6816 C   0  0  0  0  0  0  0  0  0  0  0  0
   -3.8084   -1.2805   -3.4539 O   0  0  0  0  0  0  0  0  0  0  0  0
   -1.8355   -2.2652   -1.3521 C   0  0  0  0  0  0  0  0  0  0  0  0
   -1.1882   -1.2406   -1.1171 O   0  0  0  0  0  0  0  0  0  0  0  0
   -1.2354   -3.4685   -1.6660 N   0  0  0  0  0  0  0  0  0  0  0  0
    0.1893   -3.5732   -1.9944 C   0  0  1  0  0  0  0  0  0  0  0  0
    0.8484   -4.6820   -1.1725 C   0  0  0  0  0  0  0  0  0  0  0  0
    0.8320   -4.3606    0.3213 C   0  0  0  0  0  0  0  0  0  0  0  0
    1.6402   -5.3532    1.1240 C   0  0  0  0  0  0  0  0  0  0  0  0
    2.0955   -6.4003    0.6805 O   0  0  0  0  0  0  0  0  0  0  0  0
    1.8061   -4.9902    2.4277 N   0  0  0  0  0  0  0  0  0  0  0  0
    0.3688   -3.8760   -3.4866 C   0  0  0  0  0  0  0  0  0  0  0  0
    1.4298   -3.9533   -4.0848 O   0  0  0  0  0  0  0  0  0  0  0  0
   -0.7901   -4.1147   -4.1476 O   0  0  0  0  0  0  0  0  0  0  0  0
   -1.2382    2.4432   -1.3122 N   0  0  0  0  0  0  0  0  0  0  0  0
   -0.6071    2.4895   -2.5357 C   0  0  0  0  0  0  0  0  0  0  0  0
   -0.9503    3.2409   -3.4471 O   0  0  0  0  0  0  0  0  0  0  0  0
    0.5047    1.4355   -2.7648 C   0  0  2  0  0  0  0  0  0  0  0  0
    0.0432    0.4462   -3.8448 C   0  0  0  0  0  0  0  0  0  0  0  0
    1.1558   -0.4650   -4.3771 C   0  0  0  0  0  0  0  0  0  0  0  0
    2.3540    0.2425   -5.0218 C   0  0  0  0  0  0  0  0  0  0  0  0
    2.0280    1.2578   -6.1179 C   0  0  0  0  0  0  0  0  0  0  0  0
    1.2929    0.6664   -7.2307 N   0  0  0  0  0  0  0  0  0  0  0  0
    0.9208    0.7370   -1.5489 N   0  0  0  0  0  0  0  0  0  0  0  0
    1.9895    1.1977   -0.8090 C   0  0  0  0  0  0  0  0  0  0  0  0
    2.7239    2.1032   -1.2068 O   0  0  0  0  0  0  0  0  0  0  0  0
    2.3421    0.3978    0.4641 C   0  0  2  0  0  0  0  0  0  0  0  0
    3.3220   -0.7244    0.0693 C   0  0  0  0  0  0  0  0  0  0  0  0
    4.5015   -0.8898    1.0401 C   0  0  0  0  0  0  0  0  0  0  0  0
    4.0855   -1.2569    2.4666 C   0  0  0  0  0  0  0  0  0  0  0  0
    5.2715   -1.4815    3.4082 C   0  0  0  0  0  0  0  0  0  0  0  0
    5.9428   -2.7428    3.1360 N   0  0  0  0  0  0  0  0  0  0  0  0
    1.1919   -0.1410    1.1977 N   0  0  0  0  0  0  0  0  0  0  0  0
    0.2845    0.7355    1.7595 C   0  0  0  0  0  0  0  0  0  0  0  0
   -0.0278    1.7652    1.1582 O   0  0  0  0  0  0  0  0  0  0  0  0
   -0.4367    0.2583    3.0577 C   0  0  2  0  0  0  0  0  0  0  0  0
   -1.2560    1.4052    3.6943 C   0  0  0  0  0  0  0  0  0  0  0  0
   -0.5100    2.4351    4.5790 C   0  0  0  0  0  0  0  0  0  0  0  0
   -1.5022    3.4994    5.0639 C   0  0  0  0  0  0  0  0  0  0  0  0
    0.6694    3.1164    3.8873 C   0  0  0  0  0  0  0  0  0  0  0  0
    0.4145   -0.3842    4.0748 N   0  0  0  0  0  0  0  0  0  0  0  0
    0.8582   -1.6776    3.9783 C   0  0  0  0  0  0  0  0  0  0  0  0
    0.8289   -2.3243    2.9343 O   0  0  0  0  0  0  0  0  0  0  0  0
    1.4438   -2.2434    5.2450 C   0  0  0  0  0  0  0  0  0  0  0  0
   -4.0453    5.0214   -1.3329 O   0  0  0  0  0  0  0  0  0  0  0  0
  2  1  1  1
  2  3  1  0
  3  4  1  0
  4  5  2  0
  4  6  1  0
  6  7  1  0
  7  8  1  6
  8  9  1  0
  9 10  1  0
 10 11  2  0
 10 12  1  0
  7 13  1  0
 13 14  2  0
 13 15  1  0
 16 15  1  6
 16 17  1  0
 17 18  1  1
 17 19  1  0
 16 20  1  0
 20 21  2  0
 20 22  1  0
 22 23  1  0
 23 24  1  1
 24 25  1  0
 25 26  1  0
 26 27  2  0
 26 28  1  0
 23 29  1  0
 29 30  2  0
 29 31  1  0
  3 32  1  6
 32 33  1  0
 33 34  2  0
 33 35  1  0
 35 36  1  6
 36 37  1  0
 37 38  1  0
 38 39  1  0
 39 40  1  0
 35 41  1  0
 41 42  1  0
 42 43  2  0
 42 44  1  0
 44 45  1  6
 45 46  1  0
 46 47  1  0
 47 48  1  0
 48 49  1  0
 44 50  1  0
 50 51  1  0
 51 52  2  0
 51 53  1  0
 53 54  1  1
 54 55  1  0
 55 56  1  0
 55 57  1  0
 53 58  1  0
 58 59  1  0
 59 60  2  0
 59 61  1  0
  2 62  1  0
M  END
$$$$
